19
Coordinates from ORCA-job run
  C   -0.34777069254615      0.12312728656712     -0.29109697449338
  C   -0.33436780438767     -0.08115716873406      1.24276687494002
  Cl  1.33507351870063      0.45943420898587     -0.89300811239594
  H   -2.88283848323049      1.22426138116127      2.58907922927806
  H   -1.38371311151419     -0.23193067591074      1.52319528089264
  N   -0.80726493941812     -1.17800507922254     -0.94623739804243
  O   -2.02705547420766     -1.33871178991145     -0.93300683909478
  O   0.00937582336642     -1.98866287422239     -1.36586642346462
  N   0.05733457615152      1.18289037216207      1.82438978154140
  H   1.05345437145100      1.17420874474011      2.01880393546003
  H   -0.45765106478683      1.24901445053489      2.71408521348497
  C   0.48516828250794     -1.28126914553144      1.69595843907063
  H   1.53753100047991     -1.17320714127091      1.41474658860936
  H   0.40261055688593     -1.31885727992731      2.78434755299327
  H   0.11507439510344     -2.22594725583672      1.28767979692459
  C   -1.23624648896372      1.21442089052568     -0.67554823990033
  H   -1.67004675143611      1.25039023388261     -1.66875033919386
  H   -1.31198799190018      0.50061396915426      4.09329432994906
  H   -1.46188972225566      1.95777687285369      0.08085730344130
