10
Coordinates from ORCA-job run
  C   0.56677225916339     -0.03811917392917      0.01017881200832
  H   1.72647456832985      1.66556253729600      0.07291485572636
  Br  -1.66471392782617     -0.34177399710308      0.22262685741278
  F   2.60746317538530     -0.08003720936003     -0.13677625983633
  C   0.65637503037954      1.46888454749779     -0.01409351703029
  H   0.67198443856097     -0.58113056175409     -0.90842105680265
  H   0.82934490347510     -0.53255415529105      0.92439876537260
  H   0.11230037098168      1.90379330810883      0.82709695558243
  C   0.14799252445170      2.07592524965217     -1.24060542577456
  N   -0.22182334290136      2.60341945488263     -2.22194998665867
