11
Coordinates from ORCA-job run
  C   0.54085846712500     -0.04073863983874      0.03697363244529
  H   1.78597642699338      1.61793884055763     -0.11875344823504
  Cl  -1.57803008866830     -0.10366837054966      0.29627776367265
  F   2.52458194492213     -0.22707112983121     -0.10616800045772
  C   0.71457084042477      1.44170680234494     -0.03424741072579
  H   0.55846278218259     -0.60337107418003     -0.87420056918975
  H   0.75536885462468     -0.52158569833233      0.96929776013432
  H   0.27090229322435      1.96224561339358      0.80961935046547
  N   0.08950575154273      2.05136691657479     -1.24163399555967
  O   -0.34156570641215      3.19963881255989     -1.12620758459654
  O   0.11117843404081      1.41897792730113     -2.29254749795321
