17
Coordinates from ORCA-job run
  C   -0.48666651902053      0.05174944916239     -0.19854185843185
  C   -0.06811355762021      0.10181201213813      1.10875531369945
  Br  2.15176356758019     -0.51943748819144     -1.39814128149232
  Br  -2.95759809260244      0.05150725941991      2.29147769408062
  H   -1.43869121010433      0.15111118074642      1.51409148505380
  H   0.26961789140258      1.07056539979604      1.47721330965707
  C   -0.98733287289033     -1.21904106483503     -0.79746823338221
  H   -0.41158697695990     -2.07764075904371     -0.46135345138112
  H   -2.03748595929767     -1.34197399630545     -0.48984635991176
  H   -0.93309339234259     -1.17600091743631     -1.88399448098889
  C   -0.86247386391895      1.31090814150382     -0.90395589171731
  H   -0.42265975458792      1.29383925280968     -1.90279590703102
  H   -1.95440642008327      1.37125943784164     -0.99825196514854
  H   -0.50117933239204      2.19440468318127     -0.37494503442638
  N   0.47462634679743     -1.02411846805542      1.81369489920034
  H   1.21334997039986     -1.39694067365713      1.21726442111966
  H   -0.23093982435988     -1.73962344907481      1.94269734110049
