15
Coordinates from ORCA-job run
  C   1.28899463123270      0.04756671822568     -0.02980254877517
  H   2.04468629206169      2.06399863984414     -0.17073352408732
  Cl  -2.59949493385931     -1.82873216985529     -0.93097229205306
  H   2.36017261171717     -0.16424538445374      0.01721872257789
  C   1.08352619197140      1.57194490158647      0.00624343295425
  H   0.74268567914276      1.86881875427875      0.99982917519550
  C   0.66358004440114     -0.67939912197448     -1.20708552990501
  H   -0.43114973302116     -0.65658456570628     -1.17657995489422
  H   1.01839635474789     -0.22890577030679     -2.13792998581097
  H   0.95792703313615     -1.72880306164680     -1.18428888092882
  N   0.77799778870497     -0.58570518073259      1.24957219672403
  O   -0.03644959032929      0.01700522187942      1.94044387032205
  O   1.23992691229084     -1.69608227015148      1.49670797462542
  C   0.13969381883652      2.10824418711987     -0.97338475122558
  N   -0.57297310103342      2.61103910189313     -1.75822790471896
