14
Coordinates from ORCA-job run
  C   -0.14465234770399     -0.08038602328094     -0.38456462059198
  C   -0.13547243928515      0.08412275020100      1.11247265151166
  Cl  1.52404343408429     -0.32199130492480     -1.08260890464888
  H   -2.54487743954302     -0.68408720548207      1.38836493791349
  H   -1.31903708999045     -0.08618187328651      1.38771262294497
  H   0.31435784215796     -0.81218903737027      1.54915447706113
  N   -0.98602185246980     -1.13465771689475     -0.82840807082492
  H   -1.81415785045836     -1.11182259656764     -0.19815755736569
  H   -0.50393325980374     -2.00908490980098     -0.65593265968110
  N   -0.68188603798841      1.23389630541050     -0.98701279617342
  O   0.08652980417482      2.18765743728610     -1.05255713340712
  O   -1.87006942275129      1.24414236565679     -1.28352154962307
  C   0.47369337972379      1.26703217546984      1.66240770583668
  N   0.92639327985334      2.21748963358373      2.19114089704823
