14
Coordinates from ORCA-job run
  C   0.54800089087622     -0.02541222686759      0.07326637019303
  H   1.60349551341834      1.78117470556122      0.30622096774045
  F   -1.24921339589041     -0.08324287458249      0.42980832183139
  F   2.26448959528082     -0.19057809350454     -0.56363267950220
  C   0.58696319849888      1.47678714008933      0.05452555283146
  H   0.28271312089557     -0.57754409101647     -0.81290582066850
  H   -0.09743905379713      1.82841906077401      0.82773554764312
  N   0.87896948418914     -0.68176200772815      1.30963763641879
  H   1.66646885908246     -1.27478259549722      1.08810473971477
  H   0.06205575169295     -1.22852457864872      1.54327821308749
  C   0.18356927757647      2.01886402777411     -1.30788757311838
  H   0.87045507694973      1.63261888991728     -2.06459761726988
  H   -0.83055384365371      1.68527615563489     -1.53785207475074
  H   0.20873552488068      3.11438648809434     -1.34207158415078
