15
Coordinates from ORCA-job run
  C   -0.16923943661151      0.00522586203943     -0.41146535046082
  C   -0.17805582664378     -0.00850457995469      1.04780395902649
  Cl  1.58819051978218     -0.11736060894155     -1.20758348598257
  H   -2.39093583939640      0.61443564472658      1.82549927090657
  H   -1.43345590829529      0.09528915157859      1.36408584739996
  H   0.24600883443154     -0.91502831775927      1.48524028232347
  N   -0.77720691494058      1.14031534147130     -1.01415821109946
  H   -0.33789762252989      1.91720481859349     -0.52358644495906
  H   -1.74917511128577      1.12874665050820     -0.69983735599533
  N   0.26217607910368      1.25854325066611      1.59499047696513
  H   1.11531140689250      1.15417764688430      2.12651823152310
  H   -0.48841287831937      1.57778826697372      2.21710060821433
  N   -0.85932644307287     -1.26043983894867     -0.88120686326849
  O   -1.92033803382905     -1.13628908905131     -1.49030857072438
  O   -0.35600282528540     -2.33069419878622     -0.55191239386894
