10
Coordinates from ORCA-job run
  C   -0.54599883236616     -0.36294024627749     -0.51135631587421
  C   -0.89719432116818     -1.07319438904052      0.62886954452366
  F   -0.52085094081343      1.34707483927280     -0.40729318780282
  Cl  -1.55584481180404      1.32640917846964      2.75326342492158
  H   -1.17953450716185      0.67280645940102      1.64615146377368
  H   -1.25409557888073     -0.37102075375442     -1.33895740505107
  H   -1.93121543422537     -1.33595394789544      0.81683069683614
  H   -0.15063467561611     -1.38822302167213      1.34748460301147
  C   0.83110518406911     -0.51363438171783     -0.95402614242523
  N   1.93990391796671     -0.69024373678556     -1.30526668191318
