15
Coordinates from ORCA-job run
  C   -0.09805759050343      0.02096000361312     -0.41048032900567
  C   -0.04188745628085      0.05020568354267      1.05123576048860
  F   1.21272226735892     -0.07845619059923     -1.07480865789406
  H   -2.30185372418908     -0.40541896913966      1.90660193152868
  H   -1.33239259232489     -0.04973069163547      1.47451060735081
  C   -0.78459017896224     -1.20174540311257     -0.87705076625296
  N   -1.33278861908873     -2.16710261074116     -1.26182333431003
  C   -0.75777399430329      1.25711060465718     -0.99070065457954
  H   -0.71102061052034      1.24806057740003     -2.08206849854201
  H   -1.80027517214689      1.29746344872779     -0.66380306968998
  H   -0.23242232959718      2.13948565161257     -0.61908237280705
  N   0.52556480266626     -1.10915014875179      1.71173128490895
  H   1.13242437036123     -1.63626081640258      1.09511564539505
  H   -0.25195153724035     -1.71210361950993      1.98938740825743
  H   0.37435236477085      1.00031248033903      1.40720504515178
