14
Coordinates from ORCA-job run
  C   -0.17123466327919     -0.03423929457488     -0.30068813392554
  C   -0.17882639869703     -0.20495992217857      1.24876092363319
  F   1.02962964056368      0.67044954876446     -0.56748462402167
  Br  -2.25863873230379      2.71136597012830      1.83190146780382
  H   -0.97058152147315      0.42590858429853      1.67386014214382
  H   0.76172503434778      0.18737946371499      1.64125253994392
  N   -0.18226562141978     -1.28490041075976     -0.97752035763285
  H   0.58370279098177     -1.87403622261286     -0.67757429142956
  H   -0.10790790491695     -1.09564020882899     -1.96941610707156
  N   -1.21455067888692      0.76643126982954     -0.85235754054708
  H   -1.32516095312507      1.61558233896409     -0.29700297039761
  H   -2.08341966677002      0.25667848242266     -0.74409319999872
  C   -0.32725722423335     -1.58260909617327      1.70059142064104
  N   -0.42236410078796     -2.69155050299431      2.07520073085880
