17
Coordinates from ORCA-job run
  C   0.79689661456936     -0.13046237933571      0.19155477069313
  H   1.77199891592978      1.76715007614895      0.36815542491024
  F   -1.87760336072133     -0.00023252642654     -2.21976650626442
  H   2.90674705563246     -0.03112790820393     -0.54361783246508
  C   0.78675350711606      1.38202008467819      0.12834926402415
  N   -0.06280000847301     -0.77034822207084     -0.53398508392434
  H   -1.18450838038883     -0.32802780248651     -1.63113648580812
  H   -0.03218402399939     -1.76736331798522     -0.33261542945137
  N   1.34321678276329     -0.61884580839455      1.39352626120658
  H   2.32726008892823     -0.35937917514500      1.33980213944851
  H   1.30711653767349     -1.63191099929426      1.39158802239435
  N   -0.08610543013803      1.82252562466213      1.34591836619710
  O   0.49207295603650      2.35415847050427      2.29443410456787
  O   -1.30090813617358      1.64539789675390      1.27335726724089
  N   0.28840003719010      1.90127495135574     -1.08406674235401
  H   0.24658652199575      2.90977230161366     -1.06546538255226
  H   -0.61078967794084      1.51121873362575     -1.32763215786326
