17
Coordinates from ORCA-job run
  C   -0.08396029229039      0.05879922035442     -0.39067269832335
  C   -0.19167874548523     -0.04243867919012      1.06202303311849
  F   1.24037896066685      0.04121261193089     -0.93879410167813
  H   -2.62903369656245     -0.09333824047776      1.63201387551235
  H   -1.51805488477509     -0.09269889151014      1.34386160873698
  H   0.06819589032405      0.92503953553753      1.50456439986228
  C   -0.77973855639351      1.27404414871754     -0.94993985670261
  H   -0.77724126607577      1.25953275447852     -2.04168811604456
  H   -1.80597322637627      1.30388809146098     -0.57913903304329
  H   -0.23850333267554      2.15665103648856     -0.60297885177045
  C   0.48323397858560     -1.20776048618526      1.75398519653269
  H   1.53478729478278     -1.35163105917404      1.47643662491044
  H   0.43454466594466     -1.05160031141641      2.83754400459867
  H   -0.04009813376546     -2.14693472411884      1.54649994076402
  N   -0.69852770432387     -1.19606559092283     -1.00370080306545
  O   -1.84451773150445     -1.12302019848109     -1.44943493097718
  O   -0.02767322007589     -2.22841921749196     -0.96546029243093
