17
Coordinates from ORCA-job run
  C   -0.15760549449852      0.04428686089053     -0.33499447694693
  C   -0.20320560847190      0.07614790749254      1.16022730811971
  Br  1.75206789221469      0.06791655268691     -1.05380614508083
  H   -2.53065807901128     -0.86828647478090      1.16962053839859
  H   -1.39852519035362     -0.10470627622938      1.31924915778291
  N   -0.86611955683081     -1.03629608874375     -0.90547270277715
  H   -1.69104500602419     -1.17366610649768     -0.26546342750477
  H   -0.29954886873318     -1.87395536772632     -0.88172931108724
  C   0.32728232035559      1.26199120485983      1.78566446466651
  N   0.78032822009150      2.18031222248242      2.36821090631589
  C   0.37092883756504     -1.18992914768548      1.78665585993482
  H   1.38554768329556     -1.40576987352424      1.44070325330198
  H   0.38558384096713     -1.07710736164353      2.87332440800370
  H   -0.29742336571469     -2.02409417294380      1.55528365522589
  N   -0.79578444899301      1.32721837866251     -0.93470219114551
  O   -0.74756513794627      1.46067297211140     -2.14860976142930
  O   -1.36589803791203      2.08454477058893     -0.15320153577826
