15
Coordinates from ORCA-job run
  C   0.40749578854860     -0.05753129200147      0.06287558356688
  H   1.60467900190010      1.70033324923860      0.37077076786599
  Br  -1.82806336241524     -0.24776668523395      0.30542011112847
  H   2.08554707435832     -0.23805889482367     -0.71758487962761
  C   0.58400552151379      1.45692873815050      0.06696330101098
  H   -0.08023534466163      1.83223436435632      0.84911519270779
  C   0.69422081670636     -0.76872163225442     -1.18202116439965
  N   0.43767488500582     -1.43141286026847     -2.14054789064531
  N   0.81265984408351     -0.68027578024662      1.31429569978215
  H   1.80182784890702     -0.88796528016112      1.22814000987845
  H   0.30818167858367     -1.55753350977476      1.39226910086524
  C   0.26096935348409      2.08722608109665     -1.27916337372969
  H   0.94355221170554      1.71726622283360     -2.04761720743288
  H   -0.75626547554895      1.83119759639143     -1.58061602201459
  H   0.34975015782900      3.17752968269738     -1.22867922895623
