13
Coordinates from ORCA-job run
  C   -0.31349029593479      0.00083320192323     -0.22725957520452
  C   -0.32269637415757      0.44596362862851      1.22171311665138
  F   1.10973517435098     -0.12100465769725     -0.63895510646194
  F   -1.96031888245489     -2.49255249535450      1.34836525470573
  H   -0.60390462653257      1.49307306665977      1.31716870904039
  H   0.67850420118490      0.32031048587906      1.63598334908268
  H   -1.02044739339107     -0.18645355704009      1.76646682055075
  N   -1.09915849930360     -1.01671332621775     -0.51860845930469
  H   -1.62054609562030     -1.96379454675215      0.58267432830836
  H   -1.02862793300459     -1.24404910003228     -1.50427276437257
  N   -0.57380245502011      1.28786298563283     -1.20040874755465
  O   -0.44704663649201      2.43896808728659     -0.77464576002450
  O   -0.88580018362431      1.02871622708402     -2.36197116541641
