16
Coordinates from ORCA-job run
  C   -0.24511030960252     -0.01562619588616     -0.37203329509680
  C   -0.00361583635620     -0.25298927029041      1.12635800716256
  Br  1.49768794603615      0.41668543150556     -1.20795400605066
  Br  -2.77899046480131      2.35580345275382      2.44581476268609
  H   -0.95086160166761     -0.62112755175579      1.53413058729661
  H   0.73844578922330     -1.04687152152645      1.23339435180168
  N   -0.62732566454546     -1.33278258086095     -1.05918555154774
  O   -1.03212241421729     -1.27370360655174     -2.21535449899203
  O   -0.49286676378044     -2.37078575395415     -0.41433624577190
  C   -1.29135572471749      1.04701633270167     -0.67859848934823
  H   -0.87052169711035      1.87669030399529     -1.24405597944599
  H   -2.09778614493878      0.62108241718818     -1.27460629389509
  H   -1.71036720663443      1.44011807609129      0.25195929955033
  N   0.37561447874193      0.91596538568873      1.88358990572686
  H   -0.44753251243532      1.46041119858473      2.13744766186030
  H   1.03168812680586      1.49489388231643      1.37744978406397
