15
Coordinates from ORCA-job run
  C   -0.18151362336118     -0.05720449794291     -0.32653550819093
  C   -0.05811441804382     -0.02386300567669      1.17173267460222
  Br  1.59375674455008      0.15863831732228     -1.26244119629533
  H   -2.61578834834213      0.05440711554222      1.19157872500565
  H   -1.26697315773637     -0.03540996976638      1.37607345842910
  H   -0.73528933169586      0.83505505925665     -0.62921967649396
  N   -0.86334087496256     -1.20272612416488     -0.85197961157745
  H   -1.80504291483948     -1.11132000818880     -0.44944779151883
  H   -0.44617226357633     -2.03921921406225     -0.45324710192656
  C   0.49460026236276      1.26115386780549      1.75929643435134
  H   -0.11680626440211      2.09762933081907      1.40415616471509
  H   0.42541429949145      1.24091716946417      2.85046799527041
  H   1.53552812838847      1.43979376821274      1.47322871084667
  C   0.54156768137395     -1.21801115671140      1.70571680203863
  N   1.00530408079316     -2.21106065190933      2.14156992074394
