21
Coordinates from ORCA-job run
  C   -0.20479417654626     -0.00402263133718     -0.34690881187092
  C   -0.15630416692735     -0.01943596913849      1.10915795564463
  Cl  1.65870560648178     -0.00657585194592     -1.18320394293022
  H   -2.63642424949521     -0.01452114306315      1.59386116089359
  H   -1.40008896637522     -0.01500065923812      1.35543432910265
  C   -0.83075714068423      1.24926111388703     -0.91053268086062
  H   -0.92294036568516      1.18629438996071     -1.99736489969223
  H   -1.83067939537964      1.32993218338949     -0.45645996842153
  H   -0.25427141523446      2.14142649385511     -0.66807740082837
  C   0.39183661190401      1.23078186053292      1.76840935019346
  H   -0.21646262172334      2.10998459179331      1.53727618124159
  H   0.36709143337789      1.11289866490617      2.85707407526727
  H   1.42829449118524      1.43420567532149      1.46736368386693
  C   0.37382959715300     -1.29202620098327      1.74017037776215
  H   1.40145559495569     -1.51251183129428      1.42184218802453
  H   0.36621874037946     -1.19250492182286      2.83085483768304
  H   -0.25727735621324     -2.15331697297023      1.50241182894343
  C   -0.84554848732578     -1.23849259190659     -0.93457537386883
  H   -0.27852985203878     -2.14159520776470     -0.71085413839497
  H   -1.84532928098729     -1.31737850999408     -0.47967793964365
  H   -0.93907460082112     -1.15296248218736     -2.01975081211192
