14
Coordinates from ORCA-job run
  C   -0.19643005199636      0.04781427475555     -0.37491194089893
  C   -0.09594102422204     -0.06600665079308      1.15689884974470
  Br  1.61233724273996     -0.16172747322758     -1.23561514706449
  F   -2.72541368056272      0.45046522784005      0.64413241008662
  H   -1.15652009929696     -0.07329818171632      1.45379945999052
  H   0.49375721234937     -0.92550817568996      1.47941097368373
  C   -0.92759378507876     -1.15216924571377     -0.81378092436121
  N   -1.41830843467590     -2.15755814874636     -1.17161356912633
  N   -0.84741568702763      1.21409116757172     -0.85834408074323
  H   -0.34241504497792      2.02810125605993     -0.51983797687628
  H   -1.78767532157251      1.12212521102638     -0.34119576300460
  N   0.51293253848127      1.14411287177981      1.77595798467358
  O   1.65896532671651      1.45696264785984      1.44914743504531
  O   -0.16555919087632      1.75724521899379      2.59988228885061
