14
Coordinates from ORCA-job run
  C   -0.12729525301983     -0.01967073850029     -0.39445983692551
  C   0.19642797095578      0.05121130496099      1.13451417082576
  Cl  1.28489638099696      0.79055986738549     -1.25526136244010
  Cl  -3.03901284122324      1.04036078766928      1.88592401596681
  H   -0.41876224832570      0.83624746866041      1.58268694515346
  H   1.25315055190589      0.27528433023306      1.28637495913171
  N   -0.16519947497943     -1.37946179494056     -0.84622349708976
  H   -0.60210811252826     -1.36402223723388     -1.76126822268198
  H   -0.75006741519629     -1.92734021199295     -0.22437901638078
  N   -1.28906505615145      0.72041491643567     -0.81417278866226
  H   -1.12246110327923      1.71387664408179     -0.69308495880991
  H   -2.04849337173616      0.52016403405151     -0.15327187104934
  C   -0.08622755889115     -1.19162947892509      1.84530343856080
  N   -0.25760246852793     -2.21611489188550      2.39223802440105
