12
Coordinates from ORCA-job run
  C   0.58343948692720     -0.05805662573915     -0.02762200939450
  H   1.43924385645999      1.85520117904129     -0.58974421996205
  F   -1.14746569851606     -0.21472700710625      0.10459633216016
  H   2.48639903938681     -0.11157822589119      0.19128392212483
  C   0.61681561792325      1.45505023067145     -0.00070932288005
  H   0.69856181336690     -0.61696660291384      0.87720851293044
  H   0.73640542277193      1.81064477193545      1.02518693964976
  H   -0.33913667088080      1.82246310683932     -0.38744811425490
  C   0.71758658025978     -0.74384905416857     -1.37022069891832
  H   -0.23557877650539     -0.64392990550419     -1.89935194695927
  H   1.52326569865569     -0.31838315727555     -1.96502608385846
  H   0.93142363015072     -1.80589870988877     -1.23188331063767
