13
Coordinates from ORCA-job run
  C   0.50913655092908     -0.06032846393975      0.05754367298098
  H   1.61087482731540      1.73922453252862      0.38954886369144
  Cl  -1.85294051263416     -0.06620582693266      0.20542701556493
  Cl  2.71514758221859     -0.38057819027030     -0.73740729507220
  C   0.61326536495208      1.44811121952241      0.05495031214455
  H   0.28646794878411     -0.59313543108333     -0.84377059200507
  H   -0.12439668061465      1.85799052372204      0.74765824085059
  C   0.72130556522966     -0.75337503165712      1.37545005709819
  H   1.73829842593932     -0.58810733327957      1.73005311821422
  H   0.01057545514291     -0.37854662109680      2.11189716046871
  H   0.56121982885371     -1.82460114474185      1.26031483347858
  C   0.38310239496479      2.04601133371513     -1.25615334713989
  N   0.20371324891915      2.57426043351317     -2.28812204027502
