15
Coordinates from ORCA-job run
  C   -0.17625081412894      0.05269526808507     -0.27104187050621
  C   -0.15697303990349      0.06371806456850      1.19829220157575
  Cl  1.61627980067366     -0.05702178111818     -1.06737202381779
  H   -2.62765814259806      0.37113123095491      1.79480415585358
  H   -1.35519793675160      0.22385215694615      1.48545008406388
  H   0.34608987403080      0.96648066460272      1.56096814058468
  C   -0.82347746851519      1.29655382382657     -0.83225556989194
  H   -0.86560668858507      1.28286711743433     -1.92232390442344
  H   -1.83543075983896      1.34131470184275     -0.40323138811359
  H   -0.26363313504061      2.17423148197904     -0.50390912930833
  N   0.29714728993503     -1.12892816701115      1.88175254413005
  H   1.06357216936948     -1.56649634188480      1.38120295774431
  H   -0.47324505947740     -1.78729593864948      1.92550477297474
  C   -0.80746391652570     -1.16129992558722     -0.78168238044619
  N   -1.34181217264396     -2.12951235598922     -1.18130859041949
