13
Coordinates from ORCA-job run
  C   -0.40854509983089     -0.08015153686690     -0.20153775637009
  C   -0.05113451208775      0.22211963223729      1.24499987523645
  F   0.71535662157303     -0.67960366103850     -0.80732162184607
  Br  -3.58969219104013      0.15233912992402      1.28587306654806
  H   -0.96251078022122      0.59328650364364      1.72692862381212
  H   -1.20320100149362     -0.82465639357002     -0.19027722925387
  H   0.23971773523596     -0.70228767461150      1.75183597810075
  C   -0.82078292877775      1.15135658989778     -0.99898978237275
  H   -0.81281836221877      2.05312345635397     -0.38530733621822
  H   -0.11880175307484      1.28802947288897     -1.82428261545651
  H   -1.83213461970254      1.03191024643411     -1.38405973644827
  C   1.04355088536713      1.18417572350847      1.35556489521554
  N   1.92186600627137      1.95827851119870      1.44070363905284
