14
Coordinates from ORCA-job run
  C   -0.19035652164041     -0.16590066901626     -0.08618533200048
  C   0.35960359940546      0.00976638972334      1.13890345970240
  F   0.46971023715722     -0.11348771472253     -2.80058646504258
  Br  -3.15609987584896      0.37252001378893      2.09748540353156
  H   -1.86315051023805      0.10714302578272      1.49552131453854
  H   -0.21550539581134      0.72964401900978     -0.70507337889072
  H   0.80484051230289      0.94264835500549      1.45952630935545
  C   -0.62306748707843     -1.33656895331954     -0.83434573037773
  H   -0.54079134611178     -2.28344076785190     -0.30985278283720
  H   -1.62556607415291     -1.17754485682776     -1.24375504631726
  H   0.01496079506565     -1.10816464787431     -1.81180405786275
  N   0.60324298125765     -1.03375114651836      2.11062103625957
  O   0.00030073207007     -2.10668840010834      2.03193061808828
  O   1.41284835362293     -0.76417464707126      3.00720465185290
