13
Coordinates from ORCA-job run
  C   0.55269947649874     -0.08221543882933     -0.00627147216203
  H   1.32857405277044      1.86941907333750      0.50478020755695
  F   -1.00251826663966     -0.42606206987467      0.50122568548341
  H   2.38646697081766      0.13105218711709     -0.39115979464206
  C   0.43920032644823      1.43452900203131      0.06550477817186
  H   1.02178260680039     -0.53094572407477      0.85485059019401
  H   -0.47626954793849      1.70027475154136      0.59627832488266
  N   0.41187291596993     -0.76280172927366     -1.26882893841565
  H   -0.28845984620181     -1.48074556419620     -1.13687911780109
  H   1.31148296964720     -1.14001226477010     -1.51537528868363
  N   0.28771631019052      2.05828061067031     -1.27634741874874
  O   1.24446679550848      2.66696759454817     -1.75560309607727
  O   -0.80863476387165      1.94654957177303     -1.82240445975842
