11
Coordinates from ORCA-job run
  C   0.47486402898041     -0.03331211207020      0.05107113753013
  H   1.75366367973563      1.65706269543830     -0.10560766523158
  Cl  -1.55376012279424     -0.11642947348051      0.29731379055387
  H   2.57441905118052     -0.32962604433011     -0.13459731020839
  C   0.68836831345239      1.45279216600932     -0.02864958758009
  H   0.61664611344598     -0.59652081289570     -0.85405227996519
  H   0.81032212143952     -0.50285381290161      0.95823259006629
  H   0.23837258778265      1.97865495119519      0.81020925315741
  N   0.07422645809722      2.05765157934131     -1.24352763033816
  O   -0.30387313572593      3.22807181523748     -1.15194859137026
  O   0.05856090440583      1.39994904845654     -2.28003370661403
