15
Coordinates from ORCA-job run
  C   0.63201649253984     -0.02326729155709     -0.03749749716409
  H   1.76817466817335      1.79410934939575     -0.22270156203376
  F   -1.10245321722539     -0.04047406039272      0.17915678375855
  H   2.54297270500838     -0.27217584473375      0.07519198020794
  C   0.72980399665432      1.49556100306864     -0.10551353456775
  H   0.75917438805126     -0.50860796630381      0.90828674130589
  H   0.36953185797180      1.88402989466454      0.85344426614711
  C   0.66454171660423     -0.84603929390661     -1.30880822054592
  H   -0.32914911787700     -0.83370173971833     -1.76768012726282
  H   1.40298186723808     -0.47792141780576     -2.01869077445256
  H   0.93695072241254     -1.87492144535573     -1.06909041766146
  C   -0.11898560949918      2.10150917162503     -1.22342904939124
  H   0.20439196182004      1.74153929207443     -2.20479884627206
  H   -1.16157565063082      1.82508383462311     -1.08141357918544
  H   -0.02761678124145      3.19429651432231     -1.22727616288239
