21
Coordinates from ORCA-job run
  C   -0.13473483207686     -0.01608259634661     -0.39704296323289
  C   -0.11017265145429     -0.01810466245382      1.07006584782960
  F   1.22919866575775     -0.01900482966689     -1.02620541900119
  H   -2.55413718981106     -0.03836284093955      1.62727392663776
  H   -1.58351331895214     -0.02277694495726      1.40045934866431
  C   -0.78101903724764      1.23193958704668     -0.97478196488983
  H   -0.85201146364904      1.15463863298368     -2.06462325865900
  H   -1.78388193997534      1.35188596711519     -0.55024214553368
  H   -0.18609209503562      2.11577417835808     -0.74010651567669
  C   0.43374849971133      1.23062754436689      1.72485722647813
  H   -0.13978605368950      2.12525671734394      1.45187072138306
  H   0.34545449804189      1.13869803221759      2.81639746300704
  H   1.49691738538066      1.43988413124529      1.50331423243749
  C   0.41556774311575     -1.28103883227824      1.71366375829103
  H   1.45165022938088     -1.54231534170754      1.43122283321852
  H   0.39936997484740     -1.16975417779797      2.80618764822290
  H   -0.21576172794954     -2.15132643396944      1.49143855079492
  C   -0.78669670568748     -1.26242678805521     -0.97140674780082
  H   -0.19459180472488     -2.14775709100161     -0.73481505321280
  H   -1.78892586563956     -1.37791376472358     -0.54385866208219
  H   -0.85961231034272     -1.18738048677962     -2.06129882687565
