19
Coordinates from ORCA-job run
  C   0.61985671682421     -0.04024223999308     -0.10538639118931
  H   1.76106711517634      1.65037143653008     -0.47570309443808
  Cl  -2.61235598166679     -0.50837324909914     -0.77102841674413
  F   2.62048144988639      0.03120657344777      1.15092731700862
  C   0.75334137062183      1.45733319424704     -0.09993982016542
  C   0.71445469908999     -0.75286543121550     -1.40311492659002
  H   0.05662319265657     -1.62054204758781     -1.42556882666531
  H   0.46724583347750     -0.08815049927581     -2.22573996846567
  H   1.76454453013047     -1.06054341917892     -1.46465413643221
  N   0.27652849341352     -0.68588510965274      0.96047017823856
  H   0.74197836336114     -0.33455556608669      1.79217870960058
  H   0.10752319355827     -1.67674792089353      0.88827975347529
  C   0.63635842924901      2.07517905351951      1.28565338783355
  H   -0.33222617477312      1.83655535475134      1.73593392574993
  H   1.46743052185955      1.70177011355425      1.88428677036179
  H   0.70900936426727      3.16425964744869      1.20120518969780
  N   -0.23794763146815      1.93680854659214     -1.08283202250688
  H   -0.42118454704360      2.91579198776208     -0.89748550821707
  H   -1.11746893862042      1.42893957513032     -0.96673212055203
