13
Coordinates from ORCA-job run
  C   0.15623124755853     -0.05265464932559     -0.06240569097195
  H   1.66561256308065      1.29301793672974     -0.17021851498560
  Cl  -1.63344124270343     -0.20548156958058     -0.29066001374782
  H   2.41568881397374     -0.23262671967823      0.03688130856240
  C   0.55648859785893      1.42043074540680     -0.08724130905552
  H   0.41438571525145     -0.52989035925267      0.87493115502140
  N   0.86248855844069     -0.80251557924933     -1.14602293202273
  O   1.00621491538891     -0.17134987594741     -2.21085186302702
  O   0.79807637807524     -2.03864047673852     -1.05953867531687
  C   0.25091013059003      2.05115318167580      1.19320248622718
  N   0.02523419377634      2.55818704547068      2.22876979026917
  C   -0.00095705997591      2.20916675844289     -1.18100685444981
  N   -0.41819281131520      2.93564356204643     -2.00489888650282
