13
Coordinates from ORCA-job run
  C   0.66451547365308     -0.03420354961808     -0.00540757339497
  H   1.31082318321693      1.89586222203017     -0.55072345607016
  F   -0.98636383169199     -0.45579207515818     -0.57674258301062
  F   2.35463220924391      0.16048986542745      0.56285945512418
  C   0.43788409397404      1.46382991211948     -0.05793448295404
  H   1.04698422030406     -0.55699172792514     -0.86333143098978
  H   -0.45020298264515      1.64859948033286     -0.66059531458069
  C   0.37678621734516     -0.79497068445876      1.19664053219863
  N   0.13885102533096     -1.37891208776101      2.18765021569698
  C   0.29575519357556      2.08348131917235      1.32523385894000
  H   -0.56641630562179      1.66687367409467      1.85131060364247
  H   1.19470190928407      1.87072307239458      1.90297933774293
  H   0.16202959403117      3.16852057934960      1.25613083765508
