18
Coordinates from ORCA-job run
  C   0.35577593728887     -0.05332746808740      0.11631277547567
  H   1.68890934706258      1.60047632589666      0.16190582607778
  F   -1.34124024048511      0.03464370185495      0.45213443949687
  H   2.09897595390209     -0.38481363728814     -0.63887764458503
  C   0.61324730758305      1.45211916549749      0.07014316977805
  H   0.14364056979442     -0.57507454128813     -0.79574167071243
  C   0.77266231374564     -0.82921933823498      1.34675676565942
  H   1.68740530208462     -0.42666496759350      1.78241089933953
  H   -0.03619446232679     -0.78774007609169      2.08328048603412
  H   0.97062351646457     -1.86928912199979      1.08531590739377
  C   -0.06590589509645      2.20683300644811      1.21636782296574
  H   -1.14897467836173      2.14693936524799      1.12957680718891
  H   0.21327324221140      1.78371240835949      2.18652548605315
  H   0.25121735304904      3.25779609817870      1.20515069926290
  C   0.16642557986177      1.98983814640677     -1.28104187286125
  H   0.74260599341798      1.49693321196426     -2.06989411033598
  H   -0.89516936592674      1.76943956820487     -1.41838056276572
  H   0.31809222573078      3.07346815252431     -1.35859522346547
