17
Coordinates from ORCA-job run
  C   -0.13360716563733      0.00334349981857     -0.33215948941994
  C   -0.07905911058611     -0.04005377482186      1.13212804723638
  F   1.18261708828684      0.07822487490419     -0.97473454696626
  H   -2.46030013437947      0.45688227079353      1.55238117126364
  H   -1.47932423386706      0.10320514409742      1.41771651358270
  C   -0.69788061560227     -1.26647772269351     -0.85521008262513
  N   -1.15291448646039     -2.27472565127693     -1.25127128679994
  C   0.42547876180724      1.23798462007265      1.76193685192628
  H   -0.35783078235218      2.01159339529444      1.74862751954615
  H   0.65214557719578      1.02401228209069      2.80908412045870
  H   1.33335095675710      1.65359539174927      1.29746540772192
  N   0.51043635958437     -1.24458721585116      1.70434642316324
  H   1.31103803983099     -1.55805656530662      1.16049093620937
  H   -0.17276698273839     -1.99442034919037      1.69037341407271
  N   -0.87689269876898      1.11537672800107     -0.89081647417374
  H   -0.32940772768769      1.94371741350529     -0.68046389363397
  H   -1.72746284538244      1.18259565881332     -0.32193463156212
