13
Coordinates from ORCA-job run
  C   0.51213539553386     -0.09269381985007      0.05374043832978
  H   1.65319507159954      1.69696240822003      0.37791900751280
  F   -1.12004982600398     -0.14336932389562      0.33987875842368
  H   2.27821414204488     -0.08793441447414     -0.54101066038131
  C   0.62731467040037      1.44067200169580      0.12364975594124
  H   0.41206803120583     -0.55083695406464     -0.91408982043398
  N   0.90202265400061     -0.78785036363095      1.24894098733819
  H   1.74492281926789     -1.30314952660772      1.05530164247602
  H   0.13160590089015     -1.39677882414378      1.49310099947203
  C   -0.25081227018807      2.03165412166317      1.15142061967100
  N   -0.83897637776878      2.58703650304352      2.00239096648177
  C   0.31955659278564      2.02940641361262     -1.18275211469788
  N   0.07435319623205      2.50656177843176     -2.22677058013332
