14
Coordinates from ORCA-job run
  C   -0.25557950218916     -0.01528766723206     -0.28095734494974
  C   -0.16040312179200     -0.16259869495608      1.16413016020638
  F   0.99729446217004      0.39127249895174     -0.95933539337396
  H   -2.44218732104176      0.48325678012686      1.77620985194023
  H   -1.59536302663376      0.01845365008188      1.53114560222868
  H   -0.91908060072453      0.83153909573308     -0.51882816593081
  H   0.30452772564518     -1.10191070613772      1.48813279622392
  C   -0.71550973599316     -1.26584089484380     -0.99908683163528
  H   -0.06446091329060     -2.10492276216894     -0.73745996790514
  H   -1.73922722907461     -1.50635396103274     -0.69795431244956
  H   -0.68472850431507     -1.12924588207111     -2.08410721019938
  N   0.33096483896466      0.99700483253155      1.89184098146578
  H   -0.48215764546078      1.57993248837737      2.11956102293477
  H   0.93987057373554      1.55075122263999      1.29918881144409
