14
Coordinates from ORCA-job run
  C   -0.35663504653238      0.07845417062541     -0.26884250375598
  C   -0.32841119422389      0.04075319126473      1.23661711247129
  F   0.66471199409821      0.92944235452326     -0.67948065679009
  H   -1.93675658909217      1.38299611219257      0.53191930306885
  H   -1.23220919668284      1.01544341633013      1.32210760577062
  C   -0.17372486902739     -1.21032126708959     -0.92880698499209
  N   -0.00223902706501     -2.23053743932746     -1.48618098507952
  C   -1.70459572850039      0.78394625589734     -0.73733403035601
  N   -2.30489626718890      0.89169302595786     -1.76420579301865
  C   0.89753889224901      0.36286524318241      1.89534773399912
  N   1.90237549723533      0.66626410427327      2.43013339812654
  N   -1.03345581675500     -1.08898585430709      1.79551380315576
  O   -1.99027407748218     -1.49343802488521      1.11849672285298
  O   -0.72643857103241     -1.50873528863762      2.91537527454716
