15
Coordinates from ORCA-job run
  C   -0.13050294744892      0.00495041255693     -0.33751367466246
  C   0.25411868987824     -0.10356972334606      0.97223919013879
  F   1.70645594596199      1.21668449734399     -0.84983459400859
  Br  -2.79754716433923      0.18602044646786      2.15026425259566
  H   -1.48331000827553     -0.08974501358474      1.43630666479108
  H   -0.15892146119607     -0.91316710328514     -0.92703361126115
  C   -0.81975485939879      1.18322048389061     -0.93025260307946
  H   -0.36805375116581      1.40159633731567     -1.89421827407177
  H   -1.88994698208814      0.96000471308544     -1.05208112234025
  H   -0.70378192192965      2.06211848121685     -0.30121569696196
  N   0.75865842888182      1.04257009862677      1.66529672543632
  H   0.01182484929833      1.62550679645356      2.02604836803035
  H   1.25591621392305      1.50869392753702      0.88393492103238
  C   0.69196053680568     -1.38431812120845      1.45930696088531
  N   1.00468443109301     -2.44041623307029      1.87584249347573
