19
Coordinates from ORCA-job run
  C   0.48322531161104     -0.06348188708892     -0.04921782689390
  H   1.57128593096704      1.65706388665935     -0.28742774298516
  Cl  -1.67980871764491     -0.35155741174946     -0.23179423855708
  F   2.37144045362026      0.02979593700555      0.60299009087503
  C   0.52437380869607      1.46900772438574     -0.05327106930087
  C   0.87373249260511     -0.75545465220009     -1.32195349377910
  H   0.52232150588994     -1.78340504700756     -1.31625713595768
  H   0.42380610584563     -0.21032652218206     -2.14986233301108
  H   1.95974640690401     -0.73510020050282     -1.37837856644616
  N   0.48177228130961     -0.91945660573631      1.18965622799197
  O   0.19607618019967     -0.40707053580925      2.26286450402704
  O   0.71570893119353     -2.11039937426903      1.03081955320815
  C   0.21826225006125      2.15993389548561      1.26882379791298
  H   -0.79406282815358      1.93474203614115      1.60878729168581
  H   0.92701008203498      1.85021626763342      2.03281299828696
  H   0.30712735067103      3.24174115590521      1.11008107370606
  N   -0.24651640897303      1.99974806918744     -1.18806363908026
  H   0.00918598605906      2.97681496902840     -1.28194098203441
  H   -1.23494712289672      1.95148829511362     -0.97066850964828
