12
Coordinates from ORCA-job run
  C   -0.04594835858494     -0.01659316635205     -0.42982753452814
  C   -0.03359443115577     -0.19211545081434      1.09904207370649
  F   1.02242029520798     -0.67653618997820     -1.05155991171430
  H   -2.42561140289651      1.32866943650134      1.06715194976746
  H   -1.00770400674513     -0.62328542474577      1.37804023573480
  H   -0.97051116348100     -0.40859586232062     -0.85240972960746
  H   0.04468337181324      1.04573437005487     -0.64729551746762
  N   0.14287792155025      1.12317781628103      1.72327807170983
  H   0.19124514557101      0.97619606234182      2.73038054118484
  H   -0.81666197286066      1.52280907532113      1.55773318817237
  C   1.02085821946464     -1.11879691059131      1.52101177791791
  N   1.84153638211690     -1.86664375569789      1.90381485512384
