15
Coordinates from ORCA-job run
  C   -0.41986870747313      0.03821953975728     -0.25197266449043
  C   -0.13019370182827      0.11757754064246      1.10422203497726
  Cl  1.70913065928038     -0.37313186998933     -1.39647628619038
  Cl  -2.82503340274046     -0.09110848468752      2.30972842975341
  H   -1.53699475106551      0.15139157818561      1.59875353548207
  H   0.23218476699888      1.07934049453958      1.46728170061264
  C   -0.73663412308534      1.28161637353360     -0.90377941004766
  N   -1.05768442786043      2.29726476225357     -1.40651091683977
  N   0.38251162930787     -1.02617598805003      1.80820146721574
  H   1.06580678586241     -1.47112136639548      1.19880585475719
  H   -0.35343828259983     -1.69119666357476      2.01469134153791
  C   -1.06527368037203     -1.18584513377676     -0.83718368958426
  H   -0.54532101735994     -2.08175601187138     -0.50398052986759
  H   -2.10823892335748     -1.22576275421351     -0.49553230778240
  H   -1.03270282370713     -1.15537201635333     -1.92386855953372
