11
Coordinates from ORCA-job run
  C   -0.47273463482595      0.14089643871251     -0.25331004579718
  C   -0.02053397100703      0.12860463131531      1.22961112128712
  Br  0.69635038241144     -1.01766424659909     -1.33485728354020
  F   -2.47388190790433     -1.11009658448164      0.58808657450551
  H   -0.84422089516352     -0.39721565389198      1.72572910776266
  H   -1.53643937378777     -0.42555142656608     -0.13765337204447
  H   0.89848256954958     -0.44711224184626      1.35951253136028
  C   -0.50421354535617      1.44123476301389     -0.86983235947014
  N   -0.58617927695655      2.50063816138070     -1.37938012973508
  C   0.18287134486087      1.44169351260257      1.83157754222257
  N   0.35501930817946      2.48349264636008      2.34626631344897
