14
Coordinates from ORCA-job run
  C   0.70202702015165      0.00197421869766      0.10881734802332
  H   0.84855901381468      1.92700746111067     -0.75859431279969
  F   -0.93459144979580     -0.39835318653813     -0.76268443954632
  F   2.44166462055039      0.22579851563408      0.58639329230097
  C   0.38788761435817      1.48197540188776      0.13687496218825
  H   1.09230492695773     -0.44258485451854     -0.78362851196281
  H   -0.69220916579997      1.58020365855226      0.05312051329714
  C   0.32664728927667     -0.84140424819284      1.29517587357118
  H   0.95174623795200     -0.59116869477083      2.15051969210171
  H   -0.72285519120937     -0.67166732131429      1.52987436739151
  H   0.45220739659908     -1.89742562026420      1.04764137148319
  N   0.85426258280399      2.09689540326236      1.38903583517648
  H   0.83265839988368      3.10492743158474      1.28250197797584
  H   1.82273070445711      1.79695183486931      1.45245203079923
