13
Coordinates from ORCA-job run
  C   0.59621884719429     -0.06018468608721      0.06346803577388
  H   1.70349400866668      1.73905242678723      0.40615197082952
  Br  -1.89478501105890     -0.10048239658704      0.11326340336273
  Cl  2.79711300144352     -0.28384302994891     -0.53058736643874
  C   0.68749253891234      1.45607834816772      0.12158751938993
  H   0.38027475440473     -0.54086214940557     -0.87065766148362
  C   0.71701353257486     -0.85368076539127      1.24931716167434
  N   0.84488280396946     -1.53714533546667      2.19995285353104
  N   -0.15188601682103      2.11037100243302      1.21150183278507
  O   -0.82235198511823      3.08884281983041      0.91322135517770
  O   0.02124712088978      1.65643676806848      2.33370752370750
  C   0.37699968291834      2.03930749148017     -1.17677258401719
  N   0.18871672202418      2.52981950611962     -2.22675404429215
