14
Coordinates from ORCA-job run
  C   0.58080675326565     -0.00232918528678     -0.06700832515234
  H   1.74674025937073      1.76739687132840     -0.41422796171646
  F   -1.15073247960220      0.00922689136846      0.06319015272194
  H   2.52505562307058     -0.21884850584411      0.25367279211657
  C   0.72942519634038      1.50927769316089     -0.13907542045915
  H   0.65675195619612     -0.49237665055820      0.88022197870042
  H   0.53747173593920      1.89839341918662      0.87438414733314
  C   0.71021185519515     -0.80020629167267     -1.34392877615995
  H   -0.25209693859183     -0.78857878008333     -1.86190179100495
  H   1.47255217569089     -0.38159817478718     -1.99743299988646
  H   0.99256395294072     -1.82889899496521     -1.11566626495759
  N   -0.18826799813632      2.06057625916429     -1.15179634874060
  H   -0.19474232873842      3.07061164112920     -1.06439736366462
  H   -1.10235976294066      1.70516380785958     -0.89582381912994
