14
Coordinates from ORCA-job run
  C   0.50976082016068     -0.08975454003954      0.04038067051287
  H   1.77771272504049      1.62470196065925      0.02818157081525
  F   -1.26623117567906      0.21412360266592      0.17658716323300
  F   2.23386149671115     -0.34440463679222     -0.36564424579136
  C   0.70295393978833      1.42555117691358      0.01934352701054
  H   0.27499073047874     -0.59470908992269     -0.87739229125989
  C   0.64283390445154     -0.82908517639188      1.34485981108213
  H   1.42428913911203     -0.36739908738631      1.95125863020194
  H   -0.30245429291889     -0.82910492630701      1.88204057854893
  H   0.96607331021245     -1.84865450450600      1.13470210144044
  C   0.10420269888812      2.07757531369553      1.19170776613664
  N   -0.24912536624519      2.65668211701403      2.14950888569795
  C   0.14641192002634      2.00987491830050     -1.20359225240581
  N   -0.22553985002673      2.50660287209686     -2.19962191522264
