13
Coordinates from ORCA-job run
  C   0.58056106684414     -0.13936806311625      0.10919318669651
  H   1.91452322845734      1.47656081084830      0.48920738503351
  Br  -1.83439488945160     -0.00691331694191     -0.28066980602320
  H   2.59682238760757     -0.00181014832084     -1.23400425351236
  C   0.87472868036567      1.33216888848246      0.20335383645091
  H   0.76125273388624     -0.57188681463899     -0.85901572738281
  H   0.68201598807391      1.81451698984218     -0.74793068259679
  N   0.77063122405983     -0.89962909654211      1.19910890017299
  H   0.54732766026085     -0.45903999872924      2.07842284855113
  H   0.49922143591538     -1.86446118967312      1.10895312988889
  N   0.06906536009576      2.03870227801383      1.25089931955907
  O   -0.44666705533968      3.11136916445713      0.95559535306880
  O   0.06807217922463      1.55892049631855      2.38998651009333
