17
Coordinates from ORCA-job run
  C   -0.20550907282414     -0.02069933878779     -0.35958928562374
  C   -0.18000199579982     -0.04954785368899      1.17967386926329
  Br  1.69209410414113     -0.19068985655014     -1.05306126804862
  H   -2.67552941188179     -1.20895221491794      0.97545360228281
  H   -1.26303694875289     -0.07162424842293      1.43418257603079
  N   -1.03667878482788     -1.01298567481790     -0.86213890747005
  H   -1.90071822773207     -1.07980377145363     -0.13728576991462
  H   -0.55927681437483     -1.89553713591505     -0.70027250756475
  N   -0.74471293593990      1.34798689776747     -0.81523081723895
  O   0.03727238478178      2.25720062775959     -1.06826206889586
  O   -1.96693762877930      1.42483117836628     -0.83426287631581
  N   0.41914291436340     -1.25091237834116      1.63864018086007
  H   -0.05265880446878     -1.56985794949960      2.47452378537228
  H   1.40607984506358     -1.11152102648622      1.80952154163732
  N   0.41835670589914      1.19214752577107      1.79093972734437
  O   1.54052930734976      1.11498745790235      2.29729523975831
  O   -0.26579463621739      2.21517776131457      1.75129297852316
