14
Coordinates from ORCA-job run
  C   -0.21431114335167      0.01745608410235     -0.41889370718693
  C   -0.04910588809914     -0.06111478568060      1.12419273146559
  Br  1.66854882409445      0.01143192921149     -1.26801249738661
  H   -2.54851136446921      0.77855859624756      0.98662088185973
  H   -1.16134106691592      0.06636418900978      1.41564540731699
  C   -0.82087474279974     -1.23598749863044     -0.88313697970983
  N   -1.32032379048423     -2.23963977340608     -1.23770754215592
  N   -0.99045784560760      1.10758161633467     -0.81388167242042
  H   -0.50898557629765      1.96078864507301     -0.52986410759016
  H   -1.87804609376762      1.02293802636009     -0.06697319656064
  C   0.53024755611132     -1.28991385435291      1.63704026189931
  N   0.96864104594256     -2.29491032699646      2.06257617521664
  C   0.64255706325752      1.11179358792607      1.63447177507524
  N   1.16724302238692      2.07644356480143      2.05401247017701
