10
Coordinates from ORCA-job run
  C   0.05211545567746     -0.32393203556182     -0.46584122529311
  C   0.22994083903636     -0.33095642660662      1.02871704706498
  Br  0.41174898494388      1.47363806528696     -1.22310373554073
  H   -2.67170818786095      1.15837826563341      2.27039717239044
  H   -2.05408917593687      0.82249564945149      2.01818396070230
  H   0.72451141614766     -0.98235973037348     -1.03680467680192
  H   -0.97022434840459     -0.51999646365611     -0.80634962450559
  H   0.84229463577184      0.46928070120679      1.43456868530223
  C   0.50679795966605     -1.60827332694313      1.53609237685532
  N   0.67882242095917     -2.71296469843745      1.94648001982601
