16
Coordinates from ORCA-job run
  C   0.49897813828218     -0.06310862265917      0.02652851627116
  H   1.54855901397765      1.70751933072763     -0.35140501268044
  Cl  -1.69844402003142     -0.26556365408109     -0.18746337646261
  F   2.53217090370897     -0.05375784407385      0.04666407143159
  C   0.53785694894584      1.45889326477305     -0.03701154959154
  H   -0.16838780387431      1.79733142414808     -0.79710864386626
  C   0.78329680639474     -0.75961840973016     -1.20792402992235
  N   0.93009395511617     -1.31444173114554     -2.23532537732833
  C   0.56264009707246     -0.83318318729512      1.33171547928336
  H   1.56900035915192     -0.73256215587741      1.72631487409653
  H   -0.18335420241672     -0.46187065011904      2.03291298808517
  H   0.34550898519050     -1.88414930871022      1.13835256492877
  C   0.22246490787924      2.12231959942736      1.29413589108271
  H   -0.77990008812252      1.85994874070181      1.63873245815608
  H   0.95046682345972      1.82633257135148      2.05261034553846
  H   0.27190917526556      3.21070063256217      1.18870080097771
