20
Coordinates from ORCA-job run
  C   -0.45910038264208      0.12354019422436     -0.20311749270433
  C   0.00854099396023      0.16747735135962      1.08665118227960
  F   1.67903718242319     -0.63649996039690     -0.93652854540085
  Cl  -2.55648450096579     -0.21108327418923      2.52832941377090
  H   -1.35366666431440      0.03490658888504      1.62224452642641
  C   -0.92478904563913     -1.14468509370549     -0.83751620249202
  H   -0.77234984540056     -2.00335930044509     -0.18813796048917
  H   -1.99068271545887     -1.06598383897058     -1.09051725427243
  H   -0.32285302790179     -1.28839011420629     -1.73366277581229
  C   -0.61553470693312      1.33620952020307     -1.05803739704309
  H   0.29662521254238      1.30919609720979     -1.66643469979193
  H   -1.48591741250945      1.27444349494478     -1.71783026236203
  H   -0.64503351846035      2.27255971593840     -0.50245326585354
  N   0.70996302143983     -0.99296566693072      1.57948857990338
  H   1.24614647172614     -1.26188415073296      0.73493312319287
  H   0.07601026022140     -1.72868300717014      1.86779826097483
  C   0.51535920273049      1.44464595426640      1.70847426514657
  H   -0.12624306296123      2.31033664341811      1.52841157608888
  H   0.59939398075719      1.29171875415297      2.78576844201282
  H   1.51635855738594      1.64295009214485      1.31012648642542
