19
Coordinates from ORCA-job run
  C   -0.24099516443808      0.04267995968721     -0.39763107616091
  C   -0.08807796069596      0.00090115380996      1.12873620113555
  F   1.04830941221380      0.04929075961355     -0.99492913192856
  F   -2.81039178652998     -0.12922936272444      1.15271443860066
  H   -1.17153224951798     -0.04484663354131      1.44848670213073
  C   -1.00286931495672     -1.17774613269813     -0.87540838769951
  H   -1.94591207934091     -1.16019348953743     -0.31483166286291
  H   -1.18002903634360     -1.10323347454044     -1.95259800454867
  H   -0.45326405486796     -2.10233795717924     -0.68532340767451
  C   0.50644259567853      1.23501467279687      1.62804770729018
  N   1.00181679779419      2.20771110371622      2.06637776828709
  C   0.72469629825202     -1.20443573919589      1.64724828257298
  H   1.68490290323579     -0.89540305441019      2.06650931481820
  H   0.16619221854593     -1.73347018826067      2.42283284859568
  H   0.94026918424653     -1.90967226541823      0.84428805126621
  C   -0.98494469340657      1.29717983110667     -0.80384034947784
  H   -1.14831587148968      1.30543178491212     -1.88565659715376
  H   -1.93856640006310      1.24825875596662     -0.26852751166515
  H   -0.42761079831626      2.19434027589679     -0.52493518552544
