12
Coordinates from ORCA-job run
  C   -0.70618032234763      0.49492697318298     -0.40852995234939
  C   -0.14787309846736      0.46220883334971      0.89029193536069
  Br  1.68454681848262     -2.54856161006794      0.09720273282129
  H   -1.70297790543395     -1.19040387734245      0.96540037914611
  H   -1.11702265860849     -0.37314633709770      1.32917090546191
  H   -0.06802804882971      1.38917114269854      1.45673388683899
  H   0.65028407837011     -0.27061061131805      1.03159754573008
  N   -0.97043835822279     -0.68256027552965     -1.02309037890653
  H   -1.65544534329895     -1.18308648452366     -0.10808639565337
  H   -0.16403828787260     -1.31046908173647     -0.84068292566695
  C   -1.54103470509390      1.61764519665834     -0.76631356270480
  N   -2.20104216867735      2.55298613172635     -1.04297417007802
