14
Coordinates from ORCA-job run
  C   -0.21729724255548     -0.01105369116695     -0.32279967759900
  C   -0.07066493573612      0.07708913501508      1.17843491750219
  Br  1.45021429081712      0.37928788433543     -1.32950362188509
  F   -2.69756057512904      0.28744083886241      0.80239559560328
  H   -1.14116428034845      0.13123088967088      1.48739477323481
  H   -0.90055888391648      0.79897247068421     -0.56653431228014
  H   0.51644204989242      0.94362517591095      1.48912792028389
  C   -0.85227458364490     -1.31124313116523     -0.76041532499695
  H   -0.24210642345609     -2.17764496761949     -0.49364014780407
  H   -1.81332773799587     -1.29212901366505     -0.23342000129555
  H   -1.02076771194016     -1.31814784823513     -1.83927501523246
  N   0.58519622824628     -1.11428515793586      1.78431176422072
  O   -0.00197969838478     -1.68157725040851      2.70736140420109
  O   1.68551950415154     -1.46515533428274      1.35198172604727
