14
Coordinates from ORCA-job run
  C   0.67275067179805     -0.01239109352408      0.01554905089532
  H   1.73365995993887      1.82932011569598      0.06920706995726
  F   -1.11326697762181     -0.00945731591585     -0.02933641361454
  F   2.51496386984160     -0.15203453230145     -0.08571397689521
  C   0.69868279776860      1.50350241184664      0.00387921167713
  H   0.15959933443943      1.79144047271538      0.91563885079427
  C   0.67744887226855     -0.76272680598781     -1.24013184348515
  N   0.64513921152968     -1.43331389163439     -2.20455687823888
  N   0.69134597509142     -0.69463461394414      1.27910071451614
  H   1.53859926591445     -1.24410766550593      1.28145511970010
  H   -0.13376117444074     -1.27689946682361      1.31004993909062
  N   0.09740274349859      2.01893186566000     -1.22563963417415
  H   0.09754412216956      3.03153842496480     -1.19211328813756
  H   -0.86148867219626      1.69307209475446     -1.21273792208534
