15
Coordinates from ORCA-job run
  C   -0.09983440890273     -0.09376267114988     -0.29445206444849
  C   -0.09997360975753     -0.11699401017112      1.16354958197118
  F   1.21445811441722      0.07523001331010     -0.94092170554138
  H   -2.55413295817987      0.27706122926885      1.46648276336287
  H   -1.56483625340562      0.02912817788620      1.38666232384790
  H   0.27356728764682     -1.06248732605286      1.57708178786478
  C   -0.70426710700545     -1.33781483227886     -0.90946667115187
  H   -0.16715779256869     -2.22394654072258     -0.55851382612311
  H   -1.75187223645122     -1.41075146831758     -0.60063076547977
  H   -0.64898913160086     -1.30783252278198     -2.00208436212732
  C   0.45812047394747      1.11707037777452      1.83246585667877
  H   -0.20535543069338      1.97540736231630      1.63506290743505
  H   0.48312441701819      0.99200556988588      2.92270974673631
  H   1.46975850418756      1.40833493289197      1.51035862209157
  H   -0.64628986865191      0.79474170814103     -0.64902419511649
