13
Coordinates from ORCA-job run
  C   -0.00878209686941     -0.30630221721948     -0.17662681598855
  C   -1.23372274616808     -0.12435360286143      0.72170531196608
  Br  1.61008117749601     -0.43501637434763      0.90554916132244
  Br  0.63790958929064      1.99105421993843      4.27176062751918
  H   -2.09185770026246     -0.23819811464369      0.04205990813109
  H   0.13751594565198      0.60360549721965     -0.77234723836352
  H   -1.27053263770073     -0.96968400732897      1.41384628419770
  N   -0.15736771155218     -1.50380986831215     -1.00892698016699
  H   0.71538017128035     -2.01162732416969     -1.04388752670606
  H   -0.38138609272459     -1.22047937175414     -1.95545491278956
  N   -1.36351942547981      1.10621907447449      1.46002372377566
  H   -1.21547151234780      1.90743640845461      0.85881925716462
  H   -0.70358696061393      1.18622568055002      2.23556919993792
