12
Coordinates from ORCA-job run
  C   0.47968194251321     -0.02339761286838     -0.03849306698252
  H   1.45725652891402      1.76426301245202     -0.45199123330452
  Br  -1.58844958258436     -0.62543337798284     -0.62469339607105
  F   2.45186664142842      0.17261419870553      0.74552666119672
  C   0.46401314827150      1.48532351491302     -0.10283529588406
  H   1.00298781349251     -0.56033559568684     -0.81075568470875
  H   0.47049729705278     -0.49962255165308      0.92332926236675
  H   -0.28915422030363      1.84389763256260     -0.81003165107374
  C   0.25124577137584      2.07783353898167      1.28208036675075
  H   -0.70856995611770      1.76162712552181      1.70315929394134
  H   1.07077297343633      1.71019365901533      1.89885049004315
  H   0.26982164252106      3.17330645603914      1.26427425372594
