14
Coordinates from ORCA-job run
  C   0.52940545996438     -0.01936653111772      0.01202738101453
  H   1.86820500660808      1.60949084586357     -0.08060415324526
  F   -1.26481980544287      0.22256780446775      0.06568078317401
  F   2.35863053613481     -0.48350515608986     -0.29350347843256
  C   0.79180984421747      1.46370646996712     -0.02649382213237
  H   0.39207195101953     -0.54158869513417     -0.91496369116708
  H   0.40988228692494      1.87745223075681      0.92148704567356
  C   0.60506086911913     -0.74161000212059      1.32913566802551
  H   1.49342772701167     -0.40666334719717      1.86493133005655
  H   -0.29593139847826     -0.55379811196344      1.91342007444473
  H   0.71995247600639     -1.81189481421829      1.15655182281763
  N   0.13554961939918      2.06524520801637     -1.19551745800323
  H   0.14795789651954      3.07431717740905     -1.08957084126688
  H   -0.82568246900401      1.75243692136056     -1.09732066095913
