18
Coordinates from ORCA-job run
  C   -0.15981356724962     -0.00267765515526     -0.33997307924646
  C   -0.11269622014832      0.00843476150423      1.09787128932893
  Cl  1.68199192010656     -0.07760067852282     -1.22422498833688
  F   -2.60525688321179      0.39217643786899      1.48071822273233
  H   -1.45958502509852      0.11103409735659      1.31857278357672
  H   -0.52962630844094     -0.95457030933251     -0.72590156286677
  C   -0.82024951365031      1.17487543103208     -1.02004666105333
  H   -0.92444401815016      1.00408296924240     -2.09332775920741
  H   -1.80199274853652      1.28953743868051     -0.55231598155363
  H   -0.24048983828639      2.08789434737361     -0.87712350376729
  C   0.46843414413648     -1.24573266849491      1.71329563086822
  H   1.56309235400844     -1.29021945420943      1.60100552147739
  H   0.23624582247439     -1.29904484127233      2.78365463287719
  H   0.05523443537228     -2.14483359181453      1.24181811359588
  C   0.42439339982805      1.27675243180301      1.73070836755563
  H   -0.18046856140107      2.14506866889229      1.45671622341925
  H   0.37908000936026      1.19483309429131      2.82243892844997
  H   1.47007059888716      1.47371952075676      1.44746382215028
