12
Coordinates from ORCA-job run
  C   -0.17289798271594      0.06078065375520     -0.33980251596876
  C   -0.11352831223694      0.04485844316199      1.16103679491816
  Cl  1.47171439763447     -0.18496278475534     -1.12810617807324
  H   -2.62927857381860      0.04303789308266      1.14726976716693
  H   -1.37431475380292      0.04061901053184      1.34150077391071
  H   -0.75676886186126     -0.80573617907041     -0.65775764650658
  H   0.30509740370883     -0.87731130358474      1.57206444594054
  N   -0.79618647584273      1.23286506016254     -0.89520507515394
  H   -0.34436275539429      2.05205376889589     -0.49831428617368
  H   -1.74567689431623      1.19773941125057     -0.51001018013041
  C   0.48811898554632      1.21214570792301      1.73657383022735
  N   0.93625382309930      2.19375031864679      2.21382026984290
