17
Coordinates from ORCA-job run
  C   0.45813331676995     -0.09490260122255      0.00084829903332
  H   1.70327119523803      1.59771197241249      0.06262295683309
  Br  -1.80161530322063     -0.03848741386289      0.04025384774294
  H   2.58033091182101      0.08193379894804     -0.17551971945957
  C   0.61392445517120      1.45727224079769      0.02863933994330
  C   0.63737439494709     -0.87501397670689     -1.30148203309162
  H   -0.22229617481101     -1.53524256781253     -1.45826455607140
  H   0.70612886645296     -0.19529006926391     -2.15255902132074
  H   1.55096887571950     -1.45751793335892     -1.26721703150921
  C   0.65637122860241     -0.84779901553942      1.31053823520547
  H   1.71109431930675     -1.03177456427462      1.48645879856488
  H   0.23018344407229     -0.28910815456540      2.14713837883024
  H   0.11807896758556     -1.79772822160958      1.24486887829133
  C   0.03636838592676      2.09465698861289      1.21361538126624
  N   -0.28035196414248      2.65730472228105      2.19671455779671
  C   0.13034023583466      2.10609450564187     -1.18856840585736
  N   -0.14710515527408      2.65766028952266     -2.18879790619763
