12
Coordinates from ORCA-job run
  C   0.43932000851536     -0.06569973174630      0.00561359324233
  H   1.59055767645608      1.61951518373664     -0.56085086570873
  Cl  -1.29674314958886     -0.62194566447923     -0.94673980241057
  H   2.22167112646661      0.14574555073357      1.03410110118095
  C   0.59474210185881      1.45019221576258     -0.13610675669352
  H   1.13515482514123     -0.67308705019528     -0.54548562300982
  H   0.17259611180818     -0.40862462286258      0.98899479441374
  N   0.43150500702324      2.07019339269448      1.18510602268580
  H   0.63940195236673      3.06168532630101      1.10166508119131
  H   1.18953046710400      1.62652922834100      1.71169276406883
  C   -0.35465347698833      2.10630023806428     -1.05649107488672
  N   -0.98097265016306      2.77734593364981     -1.78994923407360
