18
Coordinates from ORCA-job run
  C   -0.36200555810347      0.01051826321280     -0.22825457493116
  C   -0.12112443353264     -0.01548563508721      1.14408309002900
  Cl  1.80855558628219      0.23577199679655     -1.27339488330091
  Cl  -2.82898635230478     -0.22197076093876      2.27537175449028
  H   -1.48823344861124     -0.09963099273192      1.55383888426586
  C   -0.80651745677028     -1.21109758938659     -0.98098491307499
  H   -0.10940311461509     -2.03000259908016     -0.81136615790309
  H   -1.80814099101217     -1.50387211968480     -0.63962952053247
  H   -0.83356299747627     -1.00592096712736     -2.05011276936405
  C   -0.83203210040440      1.26797787114968     -0.75091887954079
  N   -1.29329100754815      2.28357824447240     -1.13132365016999
  N   0.35606696811142      1.19120181058857      1.78201380954979
  H   -0.38336272412713      1.88535079573073      1.81019395109855
  H   1.09931573264757      1.56214710577027      1.19055977678044
  C   0.41177537824419     -1.27622298269274      1.77258180759620
  H   1.45785304024229     -1.40803983737506      1.46951298977245
  H   0.36366519071060     -1.17035689377582      2.85690579606174
  H   -0.15815171173265     -2.16103570984058      1.48271348917313
