15
Coordinates from ORCA-job run
  C   0.73100853352832     -0.27780016454260      0.33261108049540
  H   1.92444681364473      1.48557666677990      0.55119744366402
  Cl  -1.77909464158314      0.84444915273005     -2.34222102551726
  H   3.02070998950169     -0.22969231791854     -0.37343525364658
  C   0.93378117213354      1.20170538924073      0.21626484055831
  H   0.77517169803832      1.54266006391761     -0.80540459518853
  N   -0.21664865781537     -0.79613937212742     -0.39123871021766
  H   -0.76468653490934     -0.22253100060245     -1.09275011885389
  H   -0.41071586820382     -1.78469571086539     -0.34009273245794
  N   1.30444107410578     -0.92733953655266      1.38686980233902
  H   2.30614170557877     -0.73222764087804      1.28486938113301
  H   1.14324855907701     -1.92607482271393      1.37410982462326
  N   -0.06900919625621      1.93865794561856      1.07832468162782
  O   -0.92084586292638      1.30540750877253      1.69529634887416
  O   0.08178121608607      3.15602383914165      1.12005903256687
