15
Coordinates from ORCA-job run
  C   -0.20894823211906     -0.08589062296957     -0.36443151734641
  C   -0.00475691708604     -0.01510848146175      1.12124347314743
  F   1.03800982471255     -0.06516496102069     -1.06552515177856
  H   -2.13913673785532      0.83329380753004      2.01175877971356
  H   -1.16368952912560      0.16201749528043      1.59381584586001
  H   -0.66423153617591     -1.04822142976420     -0.62496428302221
  C   -1.03719653171154      1.06035893104351     -0.89485070707354
  H   -0.48349933195452      1.99555232915178     -0.79210504761806
  H   -1.26942227532668      0.91154545160879     -1.95265401425257
  H   -1.95263867219458      1.14368087453608     -0.30175143348336
  N   0.62441363599142      1.19172187968388      1.62672332840142
  H   -0.14273498772990      1.82113157620765      1.87792190000382
  H   1.20384356492797      1.62457596796533      0.91810449157025
  C   0.60963635599483     -1.21778752870052      1.63729509241837
  N   1.03832136965239     -2.22912528909075      2.06706924345985
