15
Coordinates from ORCA-job run
  C   -0.22023514106999      0.04612461909765     -0.39044147812690
  C   -0.01274468768335     -0.04156447097635      1.13211264685648
  Br  1.62163990000893      0.12622326825316     -1.23437990574013
  F   -2.74226689517134      0.24339207845985      0.85367016846059
  H   -1.07722237343963     -0.04509012451050      1.46474295662665
  H   0.51016060965816     -0.95826349714186      1.41924929382143
  N   -0.95817732519908      1.20033051702720     -0.79701121891058
  H   -0.51055680766549      2.02967363618395     -0.41509806334725
  H   -1.85357781330460      1.03789218864604     -0.25932291808830
  C   0.67873696555083      1.10781265592370      1.69583935051921
  N   1.22355703810505      2.03970496223548      2.16018877786338
  C   -0.93820233540740     -1.22389753904030     -0.87058584209386
  H   -1.19718496580950     -1.85732749317123     -0.02203728550488
  H   -1.87306254174735     -0.92154423576318     -1.33686009387466
  H   -0.33527362682521     -1.78969656522361     -1.58082638846120
