14
Coordinates from ORCA-job run
  C   -0.34494198046185      0.04125286940462     -0.24873882590248
  C   -0.01047576755965     -0.09355311330605      1.23244121311675
  Br  1.35402635204638      0.01404671590899     -1.33083757937423
  F   -2.46853368360180     -0.01110856863090      0.61072538452035
  H   -0.95152979543125     -0.36305992443044      1.70346163175983
  H   0.80208232579224     -0.80246987197071      1.37800066532630
  N   -1.04991135707091     -1.21520883031985     -0.72786985744416
  O   -1.65083307802961     -1.14378305245528     -1.78427603695897
  O   -0.82293698871627     -2.23102855056663     -0.08211581366212
  C   -1.07539067995276      1.23930171831119     -0.61818687486293
  N   -1.38626119475757      2.29939953737494     -1.02575847240348
  N   0.43098623562855      1.20970158085812      1.80433232163898
  O   1.50318021538943      1.67289675100009      1.41591808315706
  O   -0.29108060327492      1.72320273882194      2.65721416108912
