13
Coordinates from ORCA-job run
  C   0.75047423923295     -0.07580593854650     -0.15359465670261
  H   1.67072646448728      1.76433465977026      0.49461860644482
  F   -1.10913013798947     -0.28505797951184      1.26551381277388
  Cl  2.31930560063313     -0.40734275722970     -1.04304971069992
  C   0.72879547558710      1.40285003641754      0.08977499797521
  H   -0.06719108080953     -0.39260974951474     -0.78278599291397
  H   0.70353715798849     -0.60921660494339      0.78710770871651
  N   -0.33105437826324      1.90985359216582      1.04278388897142
  O   -1.36271835411006      2.35124725681960      0.56122536394426
  O   0.03757725683787      1.99726913437208      2.20433369297151
  N   0.53563358830989      2.18558589545943     -1.18151197183717
  O   1.01639614034346      3.31941345355779     -1.18431923190191
  O   -0.09629197224784      1.67741900118364     -2.09930650774201
