14
Coordinates from ORCA-job run
  C   0.16689325709202     -0.09070823894205     -0.46497485943460
  C   0.02219763827578     -0.05921468290407      0.99131074236884
  F   1.51506577745596     -0.35764163380872     -1.01154623360554
  H   -3.26404315074500     -0.06307606867086      2.21018657486135
  H   -2.56176952929441     -0.00614397797532      1.96070295421660
  H   -0.07451621702566      0.88580905862776     -0.90323231884987
  H   0.56536515890716     -0.90332526963694      1.43591198529034
  C   -0.68070291395621     -1.18455568541301     -1.09321666813767
  H   -0.43761513195484     -2.14084853836729     -0.62089184724327
  H   -1.74162765462422     -0.98429802666443     -0.93760973229161
  H   -0.47412823694623     -1.26800637477014     -2.16493602532802
  N   0.68385601401826      1.15301884111121      1.54777850061718
  O   1.88562897290279      1.38144523330184      1.32424725879745
  O   0.01014601589456      1.93112536411215      2.24159966873876
