15
Coordinates from ORCA-job run
  C   -0.01277303648070      0.01969745032529     -0.42799856564751
  C   -0.01258038143812     -0.07077593077920      1.07600198698992
  F   1.29627279709770      0.15800806545807     -0.94077385052910
  H   -2.42878923050166      0.40146865864336      1.32719872810222
  H   -1.29021857510820     -0.00515665092389      1.29768993273187
  H   -0.40629300061888     -0.91017101819013     -0.85266094068090
  N   -0.78221552875066      1.12636354307909     -0.94939881164903
  H   -0.32357243642813      1.97710778398960     -0.63711414738763
  H   -1.67321537350582      1.09102850729028     -0.44209300482385
  C   0.48604430932926      1.18346408728207      1.77621769965177
  H   -0.30731756777607      1.94183542532817      1.74809925376327
  H   0.69272960657358      0.97557976519359      2.82913521662430
  H   1.39660312529084      1.59277502816371      1.32439546301286
  C   0.57346630982652     -1.28376885687795      1.56080038685142
  N   1.01671898249035     -2.29845585798205      1.97321065299039
