13
Coordinates from ORCA-job run
  C   0.60076241448779     -0.04675652990718     -0.04371524040098
  H   1.66856945824977      1.78966901202646     -0.19861022618841
  Cl  -1.44212038957345     -0.30788328664437      0.40405332433715
  H   2.70861583806934     -0.08353225623361      0.12872364358077
  C   0.63192605953211      1.47668649315344     -0.08937980766172
  H   0.95909675580405     -0.49142409734816      0.86151875759865
  H   0.23368846761917      1.87738085057976      0.84593380518950
  C   0.70415264077604     -0.79820792568936     -1.35189042355106
  H   -0.18965860305663     -0.61356630716194     -1.95350995395173
  H   1.58643215691210     -0.49731093074220     -1.90884159463306
  H   0.77222107405590     -1.86858481283614     -1.15029867550115
  C   -0.14465405401957      2.04091664782995     -1.19358573098037
  N   -0.71540181885661      2.54435314297332     -2.08805787783755
