12
Coordinates from ORCA-job run
  C   0.58712469686611     -0.10368394381488      0.00603889562759
  H   1.43550975712934      1.67737367836983     -0.74504672180932
  Cl  -2.10173604977475     -0.11738187844138      0.17618698411813
  Cl  3.37988693643467      0.03524566514353      0.30358152343863
  C   0.63210814206705      1.38971104896645     -0.06930768640627
  H   0.86371915716236      1.79510324617015      0.91140835695448
  H   -0.33999786582276      1.74760826072800     -0.40232700499992
  N   0.67327264583357     -0.81873863683816     -1.07756084785896
  H   0.75126666387700     -0.36691175094091     -1.97285904354803
  H   0.67771933072224     -1.82419953021077     -1.03942845238214
  C   0.56595096204800     -0.80850267284351      1.25830005880671
  N   0.56925562345717     -1.40733348628836      2.27132393805911
