17
Coordinates from ORCA-job run
  C   0.09137386880448     -0.00569577453470     -0.46545729308166
  C   -0.17674990493751      0.03636410671906      0.97818878750365
  F   1.39361672072701      0.31250973902220     -0.88675964179646
  H   -3.08830493874820      0.66792855327114      2.52487877019784
  H   -2.49860669982333      0.45598593995572      2.11832515772764
  N   -0.23566669044101     -1.22550051216277     -1.15799306535601
  H   -1.09376141099773     -1.57633151542959     -0.75120262655877
  H   0.51236914003351     -1.87605306102145     -0.94911115656847
  N   -0.76674233782294      1.10164554900391     -1.11509676428629
  O   -0.23316837872827      2.16142075816637     -1.42162390665452
  O   -1.95276925913607      0.83287555149514     -1.28066045128084
  N   0.44531692726129      1.17783794617979      1.57924742369160
  H   1.46123698563976      1.11660731851676      1.61482274580119
  H   0.07463110442147      1.36822920587174      2.49854074501379
  N   0.41365579222247     -1.23407665981093      1.56160670308542
  O   -0.29179584456979     -1.93382623865069      2.29947472404175
  O   1.60575492609489     -1.52508090659172      1.34004984852011
