16
Coordinates from ORCA-job run
  C   -0.20094288781678     -0.03600542989137     -0.33474516881996
  C   0.21096186034536     -0.06004441117484      0.96811544088796
  F   1.65471588164832      1.17811849798754     -0.95220202139288
  Br  -2.61934867816610      0.36460138947310      2.37886137680204
  H   -1.37573770296807      0.03337335339633      1.51718041880010
  H   -0.24844818206765     -0.98354180795153     -0.86558445517302
  C   -0.88390445779258      1.12524385141140     -0.96033642107965
  H   -0.41570110821158      1.32807631987296     -1.92006081382374
  H   -1.94864352384608      0.88555674787065     -1.09792171463403
  H   -0.79097224509493      2.01524488962644     -0.34192441230395
  N   0.86464374968427      1.02510054315863      1.52203236335287
  H   0.34680389099521      1.57553490059880      2.19002122369891
  H   1.28335572910344      1.50069630669027      0.69992003651974
  N   0.56707857625578     -1.39886805796715      1.52092800085607
  O   0.03937285993257     -2.38715242189754      1.00028153936356
  O   1.30677623799882     -1.44852467120366      2.49991460694598
