16
Coordinates from ORCA-job run
  C   -0.07761446978642      0.15255691133732     -0.35516914823519
  C   -0.30230454010293     -0.11513987809097      1.22537820156854
  Br  1.45052385737463      1.23577890798590     -0.79751797494904
  H   -1.18556670478679      2.51348247739635      1.91101068833186
  H   -1.33884770300421      0.21792072941895      1.38474430616007
  C   0.07328367114458     -1.10440991213351     -1.07806792612087
  N   0.21980706670049     -2.14038968967227     -1.61620430598631
  N   -1.36700281659711      0.77921958923871     -0.92205726934681
  O   -1.34871736238087      1.88106769832483     -1.43390255214129
  O   -2.33936693817605      0.04027698565813     -0.79170913798250
  N   0.62188258526190      0.67610999504578      1.97199545184483
  H   0.57788383687904      0.29894724671167      2.91604056100087
  H   0.10894228592564      1.60881438036802      2.02787074914017
  N   -0.18793034646200     -1.50718737726569      1.59057195686656
  H   -0.85019188369590     -2.07879866609522      1.08142291086770
  H   0.74979946170603     -1.84108939822801      1.39829348898140
