18
Coordinates from ORCA-job run
  C   -0.54230422158411     -0.32004354864526     -0.42372183054193
  C   0.23515074612975     -0.60848925049356      0.74423362887164
  Br  1.19663061420790      3.61010409839714     -0.47893808914171
  H   -1.29075271519042      0.95750174809570      1.44083406515034
  H   -0.66733806542974      0.06400362860035      1.47650831915123
  C   -1.45404117598480     -1.35370340390296     -0.86378114752131
  N   -2.16252621126301     -2.21787658456285     -1.23773383159383
  N   -0.94224555009626      0.93721403965334     -0.70727516664147
  H   -0.18232037981215      1.63855531791802     -0.63071858396400
  H   -1.42947003748543      1.20442614056441      0.42927619403060
  C   0.38281850427594     -2.04831235288966      1.19638594745346
  H   -0.53108042040798     -2.62880662743602      1.06040801722802
  H   1.18727754272694     -2.53995253981917      0.63946804310070
  H   0.65524780932329     -2.07362296870054      2.25512931510054
  C   1.45618059068634      0.24239437287092      1.04396484118545
  H   1.33063716500416      1.29433531865699      0.78324269317948
  H   1.70437773436999      0.17177478881888      2.10746699148498
  H   2.30780807052960     -0.13804217712570      0.47018059346785
