16
Coordinates from ORCA-job run
  C   1.26797325908246     -0.04729570323968      0.03231301053092
  H   1.69579369137321      2.09054768275436     -0.04688209436511
  Br  -2.42925815210312     -0.96080476858206      0.29439444830995
  Br  3.31048655350315     -0.03782048030956     -0.18068899488910
  C   0.82149509400426      1.44204374449097      0.02254277055744
  H   0.23800007694818      1.58943976395284     -0.89129830921451
  N   0.80131574019458     -0.85520237290463     -1.06012454335701
  H   0.90219646891327     -0.35886448678179     -1.93868218794144
  H   -0.19456752410504     -1.02645377006259     -0.88821738149918
  N   1.00900559436052     -0.67859929430243      1.29048954330697
  H   1.27194526070468     -1.65402554317710      1.18458318950891
  H   -0.00729355362685     -0.67457473365040      1.41110164861883
  C   -0.02385431365406      1.87025276053334      1.22115805472289
  H   -0.95029588235177      1.29725726015108      1.27337656663771
  H   0.52997252638768      1.73940193367437      2.15161678322025
  H   -0.28496483963115      2.92824800745323      1.11551749585247
