13
Coordinates from ORCA-job run
  C   0.34118215686784     -0.08245421743731      0.10994473235653
  H   1.28396284671521      1.73610109604895      0.65529801503767
  Br  -1.94536416794962     -0.46387308182985      0.55592378309363
  F   2.25245123570831      0.08277914951496     -0.63289351481420
  C   0.40320713332273      1.41685697833146      0.11021811311786
  H   0.20447207626483     -0.59494227260073     -0.82449163425324
  H   -0.49744896690081      1.87633795941836      0.51932531318624
  N   0.88751046184868     -0.68621093031919      1.26893316492639
  H   1.88080476521367     -0.65934948439152      1.03128795691041
  H   0.57255011127997     -1.64646857358249      1.31507503625670
  N   0.54987776062346      1.97293194836319     -1.26097590898449
  O   1.16186853824404      3.03514867814676     -1.35966752179944
  O   -0.01385395123830      1.40301275033740     -2.18814753503409
