13
Coordinates from ORCA-job run
  C   0.45503669461631     -0.04449013098398     -0.05377843991740
  H   1.82145285507268      1.58930449444733     -0.03438242785148
  Cl  -1.64599174873182      0.03892914555356      0.10233152002637
  H   2.48269764842154     -0.42188353133376      0.41438210071132
  C   0.74230152520235      1.45263110595690     -0.06768790274667
  H   0.60367139982353     -0.53846059147857      0.88390338872826
  H   0.29589940404897      1.91680812800118      0.81505325358415
  C   0.61245131701410     -0.80968451391826     -1.34833288317782
  H   0.45661672854620     -1.87360605730234     -1.16153536885239
  H   -0.13632974759014     -0.47058750732360     -2.06885978678816
  H   1.60640197377109     -0.67549815096571     -1.76448924896879
  C   0.22137517816197      2.13422097294539     -1.25296010961761
  N   -0.14195322835679      2.72405663640186     -2.20130409512978
