12
Coordinates from ORCA-job run
  C   -0.05316671611121      0.00889726657587     -0.38015471831916
  C   -0.13060055442855      0.16076934025286      1.07308169357472
  F   1.28364505074557     -0.21497027408915     -0.92217141175154
  H   -2.41322098606079     -0.18098234777212      1.91322348762509
  H   -1.42099874976485      0.15564564280206      1.43491078154020
  H   0.32464151031036      1.10651747866945      1.38952905464903
  C   -0.82226839742653     -1.15464805042079     -0.86023798721808
  N   -1.42668094143162     -2.08191578734521     -1.25263356298165
  N   0.30780651801119     -0.97748564519542      1.85795706250596
  H   0.91214917757403     -1.59489041713382      1.33080677459586
  H   -0.53253601255201     -1.49146267264751      2.13434034943014
  H   -0.39903989886557      0.91024546630379     -0.89822152365058
