13
Coordinates from ORCA-job run
  C   -0.40727778048532     -0.02291739344749     -0.29232558282393
  C   -0.13593487810095     -0.03215017268620      1.06803138391924
  Cl  1.57484206641036     -0.02728809368793     -1.62180035368450
  Cl  -2.66890320827341     -0.38445114770694      2.55443286107766
  H   -1.48983331491373     -0.19588491438168      1.65690283206470
  H   -0.69805335135194     -0.94821569583127     -0.77585294316591
  H   0.25741077726119     -0.97886158782654      1.43820031160613
  C   0.36558713180925      1.20606196936585      1.76138717976485
  H   -0.20299578968001      2.08706121298937      1.45496060255800
  H   0.27674148031699      1.10734439039043      2.84589909131453
  H   1.41687972280950      1.37459919572002      1.50298234963580
  C   -0.95624720511805      1.16710411527843     -0.88477994838528
  N   -1.46676565068386      2.13789812182393     -1.31341778388130
