19
Coordinates from ORCA-job run
  C   -0.21974298796287     -0.04070837030966     -0.28867961434576
  C   -0.25011178858892     -0.05571247436746      1.24302053284455
  Br  1.66127672994930     -0.06298508007779     -0.96806565927561
  H   -2.84619500488845      1.48185467194306      1.42866377752293
  H   -1.32892693837921      0.07166245723079      1.47694866171194
  C   -0.99366943397248      1.10768184908999     -0.88329154744823
  H   -1.22809878942956      0.92493730093406     -1.93582293224523
  H   -1.90431567682317      1.24476472068267     -0.25468318716791
  H   -0.40675087942616      2.02328108158117     -0.80800513031319
  C   0.42074353054961      1.16450309050912      1.84656442152897
  H   -0.10641831363962      2.06757891670717      1.53578662461173
  H   0.31731013458189      1.08153621248852      2.92998199254997
  H   1.48295180844390      1.22770888157540      1.59356637989995
  N   0.25719802870421     -1.28099533866838      1.84530400941144
  H   1.16649735344356     -1.51007630198723      1.45663322776635
  H   -0.37495227318426     -2.04781039290064      1.64999832586661
  N   -0.87780444718152     -1.33975095093152     -0.76531937970145
  O   -2.01295026844401     -1.50707737579610     -0.32856049721553
  O   -0.29626078375225     -2.11200289770319     -1.52074000600156
