12
Coordinates from ORCA-job run
  C   0.51731510938712     -0.04090219437655      0.02066142987261
  H   1.74768814806270      1.73321279594175      0.20893413023382
  Cl  -1.56712555288584     -0.08508693766719     -0.03385114732746
  H   2.40754972827455     -0.28871385456902     -0.34956067843564
  C   0.70834181952877      1.46630503582145      0.03796374635646
  H   0.09124178635652      1.86245580736459      0.84485839206623
  H   0.36941851081887      1.88840651006067     -0.91112041724386
  C   0.87854606473505     -0.75772865241120     -1.18774134678429
  N   0.76491277634029     -1.36639472543005     -2.20150285918245
  N   0.69374657811047     -0.69589702828585      1.30885748641114
  H   1.66011730201640     -0.99671786283398      1.33531921649439
  H   0.09444772925508     -1.51453889361462      1.31789204753905
