16
Coordinates from ORCA-job run
  C   -0.07996434063916     -0.15507711773151     -0.23461663258754
  C   -0.34556323442024     -0.12640186672390      1.25239565066194
  Cl  1.62776819207185     -0.11805227129316     -0.69362571040333
  H   -1.28651365007411      2.18698830407867     -0.61595311202462
  H   -1.43506391222423     -0.09674601194555      1.34670640288790
  H   -0.60716078545209      0.80986162684179     -0.61026286643192
  N   -0.69869722322176     -1.36671376401378     -0.86602961087424
  O   -0.34177264434532     -2.47317438012725     -0.45705698284681
  O   -1.52990180683330     -1.17545614847264     -1.75085247532846
  C   0.26332520294448      1.11190183294471      1.87587922300780
  H   -0.06519205455322      1.21096870536783      2.91395119213683
  H   1.35064165791829      1.06039125808250      1.84441862039977
  H   -0.10004636388467      1.96031133426197      1.28454705025999
  N   0.07382895447855     -1.35459052219439      2.00718554665716
  O   -0.81850184282778     -2.09762252485405      2.41826136118069
  O   1.27584385106273     -1.52626845422128      2.19547234330484
