14
Coordinates from ORCA-job run
  C   0.36479723340938      0.00689243310001     -0.09831274744137
  H   1.69285724458436      1.56281490202465     -0.56015991761769
  F   -1.22418437434297     -0.00343528254662     -0.79956248759080
  F   1.93198929710185     -0.22158605077863      0.66928746783739
  C   0.66480944231856      1.50517756120426     -0.20493835137302
  H   -0.06014337744299     -0.47094573232901      0.76268573088147
  N   0.83212722414021     -0.87319630541741     -1.18921611583546
  O   1.37579439610112     -0.34567547538088     -2.15492887312760
  O   0.63783607579776     -2.07514838469725     -1.05482018750346
  C   0.65169928569055      2.02604918137127      1.17667305014988
  N   0.57633294587460      2.55130285175757      2.22498651855759
  N   -0.21215745572525      2.27920273514511     -1.08340756810843
  H   -0.35190554237771      3.20320053152615     -0.69675925356457
  H   -1.09136239512944      1.77585703502080     -1.11271726526393
