17
Coordinates from ORCA-job run
  C   -0.17640481485703      0.04649316689355     -0.24566320103324
  C   -0.01718504667159     -0.03528353718258      1.26560584240507
  Cl  1.50933158511232      0.06963684676472     -1.00033866128281
  Br  -3.83157323046625      0.53713391695412      1.07070551051584
  H   -1.04128883423235     -0.01248076340933      1.65444653806991
  H   0.46061823835938      0.89790081591841      1.57305621785345
  C   -0.90279919309576     -1.15360730062879     -0.83446510031869
  H   -0.40556314587474     -2.10048371600448     -0.61362305474487
  H   -1.91324457978363     -1.15333544320963     -0.41493622529386
  H   -0.97013169162727     -1.04862045209672     -1.92076795217304
  N   -0.79498973018213      1.30888792597840     -0.55805268777628
  H   -1.68247555156320      1.33289126580771     -0.04441787179971
  H   -1.03268668805465      1.32466941515581     -1.54512969436292
  C   0.75082334969197     -1.25472270393948      1.79481366503692
  H   1.04876640476267     -1.93311166088544      0.99414155838807
  H   1.66870144431203     -0.95282942514569      2.30423224988162
  H   0.14607148417022     -1.82469835097063      2.50372286663456
