19
Coordinates from ORCA-job run
  C   -0.19117755783375      0.04624945503481     -0.35278483157782
  C   -0.11731822988422      0.09228700623341      1.11202073406476
  F   1.15003188070763     -0.15440598453185     -0.97742284161670
  H   -2.39292201794226     -0.71913481403733      1.75330815371249
  H   -1.62799811368881     -0.24181116994538      1.53330107147503
  C   -0.70606180794937      1.31047072426879     -1.01079660886891
  H   -0.74828487773708      1.14734313572639     -2.08952486138890
  H   -1.70926096585604      1.54293310332263     -0.64122326499644
  H   -0.04457849480780      2.15200753114490     -0.79835469313647
  C   0.49129786746225      1.33133146198160      1.72710856233695
  H   -0.07118143067700      2.24256586100926      1.48779843617455
  H   0.48023160525805      1.21753719352463      2.81605143819142
  H   1.54522337861443      1.50993098599406      1.43452020053937
  N   0.43015573507050     -1.11590328241147      1.71226528556792
  H   1.11537789501562     -1.55791490190043      1.10435017643038
  H   -0.32667674996978     -1.78505329573891      1.87336817888420
  N   -0.93211551296712     -1.10443605131843     -0.87945343938884
  H   -1.75052453979340     -1.19700997711345     -0.27630964198324
  H   -0.35997806302185     -1.91542698124324     -0.66836205441975
