14
Coordinates from ORCA-job run
  C   0.74000325898535     -0.08159369536963      0.37824829086025
  H   0.74384112961094      1.07976509411109      2.09726603557599
  F   -1.89154224703760     -0.13257066960601      0.49287546360681
  Br  1.39884812364834      0.20231092068863     -1.61923422886768
  C   0.86229661095586      1.27908577463568      1.02600394308993
  H   -0.35833089513597     -0.33869395588977      0.26544917852749
  H   1.87216686680875      1.68480873300380      0.88176113594173
  N   1.52106069153347     -1.06502632136868      1.00344692923026
  H   2.50979763425495     -0.84333444633772      1.00160238599084
  H   1.37513405952660     -1.97222354234573      0.58333163073613
  C   -0.22867044449568      2.24852066186016      0.54729159046225
  H   -1.00662673619070      2.33525747404996      1.30418498660284
  H   0.18159871508255      3.23778167412869      0.31929154047489
  H   -0.73819676754688      1.84061229843958     -0.32167888223176
