15
Coordinates from ORCA-job run
  C   -0.24372935331778     -0.20159679241520     -0.24203503501531
  C   -0.23442500278176      0.36609770052913      1.19449489587342
  F   0.43549726540862     -1.36983479806366     -0.34464616560713
  Cl  -2.34495767720141     -2.03523742267808      2.37902788271400
  H   -1.26319957147832      0.48964150160593      1.52824340356999
  H   0.23933884979686      1.35263600705231      1.12177564548124
  N   -1.67581218889139     -0.51382036065392     -0.72119498451471
  O   -2.46117015620401      0.42334509894772     -0.60125795027793
  O   -1.89004966188471     -1.56858135424436     -1.29981778403495
  N   0.33646844501249      0.71269811956586     -1.17601563192952
  H   -0.13389385920832      1.60532957486670     -1.09876646845936
  H   0.22669907136037      0.36086802138179     -2.12142888402046
  N   0.45004874608757     -0.43474228496325      2.18151773306397
  H   1.30031889410184     -0.82074989015707      1.79202268841779
  H   -0.18075380080006     -1.20173312077383      2.41696065473892
