19
Coordinates from ORCA-job run
  C   -0.20883691401921     -0.00057322092578     -0.28481634538413
  C   -0.13733317261882     -0.02143810617727      1.17154233412530
  F   1.16682500910201      0.03575446923936     -0.95735853231787
  H   -2.56491869963512     -0.12135784593250      1.77755307869878
  H   -1.64939097282143     -0.07318588402024      1.53575501276632
  C   -0.88362158855369      1.24353034499363     -0.82697996950028
  H   -0.92683838094746      1.21489965394718     -1.92041710468492
  H   -1.90074702186092      1.30946292896383     -0.42337622470293
  H   -0.33238798729272      2.13559489934051     -0.52805497575737
  N   0.34707161531131      1.18642204675219      1.81426451792016
  H   -0.42198045496798      1.83782783803062      1.94992528054290
  H   1.05764271811159      1.65666280568515      1.25829875291968
  N   0.39964873133408     -1.22721685741078      1.77311817948917
  H   1.11044499471360     -1.66187804492922      1.19024782147868
  H   -0.34587353219073     -1.90555906077057      1.91264732090824
  C   -0.83750838193582     -1.25234448251965     -0.86342173855690
  H   -1.84543073898181     -1.37518847754646     -0.45001744779610
  H   -0.89603118343433     -1.18764506513124     -1.95462293174920
  H   -0.24613403931254     -2.13047794158879     -0.60236702839956
