17
Coordinates from ORCA-job run
  C   -0.13108517200944      0.03202418985300     -0.38591566411691
  C   -0.16081857887513     -0.04570664037577      1.12931713858687
  Cl  1.57414366981568      0.20439277386386     -1.03808342068362
  H   -3.13473781680361      0.12687342470021      0.98325574515311
  H   -1.23798702399900      0.01494317990622      1.40535069354181
  H   0.42745087860119      0.75543936438332      1.58311455394291
  C   -0.77687268981050     -1.19983860207542     -0.98662976933652
  H   -0.21186806994451     -2.10371495267183     -0.74825021047959
  H   -1.78812046595990     -1.25598545590208     -0.56104433051180
  H   -0.83821147832311     -1.10356774811064     -2.07327429634344
  C   -0.89959447317701      1.28300429324173     -0.76832048571631
  H   -0.93553352232366      1.38508639335719     -1.85608907259315
  H   -1.91431481516945      1.16807753019620     -0.35106115903722
  H   -0.42462671348708      2.17461677824959     -0.34896872174925
  N   0.36786187837905     -1.32197418017985      1.69609342241179
  O   -0.34255276132902     -1.91732383523278      2.50576260862769
  O   1.48913715441547     -1.69974651320299      1.35109296830364
