17
Coordinates from ORCA-job run
  C   0.81256720955825     -0.07317673918795     -0.04989278235799
  H   1.69589909335275      1.89809293611329     -0.34642193412362
  F   -1.25013616600194      0.19335037745655     -0.03935379760935
  Cl  3.04559954745712     -0.14380752853356      0.07068856255477
  C   0.73475872966039      1.44690704686629     -0.09898222388168
  H   0.36884916715043      1.81755065048001      0.85244778102110
  C   0.71245951585999     -0.91931631439218     -1.29415969310123
  H   -0.34032957880182     -0.98587690840478     -1.55411121703243
  H   1.27457333737405     -0.48638905894322     -2.11717867203728
  H   1.12012553545194     -1.90856856566206     -1.07704196271389
  C   0.61944528331000     -0.75967563254881      1.28659789111742
  H   1.25279635364864     -1.64399706179569      1.35308683682453
  H   0.89677432302312     -0.08921796233593      2.10251590309754
  H   -0.43199016373863     -1.01955239496412      1.36786225027825
  N   -0.19684704931982      2.02255006717317     -1.11349033873634
  O   -0.90070484017289      2.96037391908362     -0.75002151324940
  O   -0.09697029781161      1.64071316959540     -2.27514509005042
