15
Coordinates from ORCA-job run
  C   -0.40147551016315     -0.11988722918076     -0.38888150739211
  C   0.13800092142991     -0.17844453758896      0.87437699283813
  F   1.45016848376939      2.37435260689277     -0.53113821586713
  Cl  -2.66509257083428      0.69836409011035      2.22506575970930
  H   -1.60845374829827      0.31072791009252      1.50624253325297
  H   0.54099112042920      0.76677080270087      1.23518863872329
  N   -0.54090102180090      0.97522460485793     -1.20222973462490
  H   0.67327661846482      1.81858540773662     -0.86980036204237
  H   -1.30733522646888      1.56402134574199     -0.88606118078281
  C   0.42214362196059     -1.42216839511163      1.66653855983743
  H   1.50208075630707     -1.57344998747583      1.77935179974146
  H   0.00087566643501     -1.36327971173035      2.67693493541832
  H   0.00700720171913     -2.30892154497317      1.18206858234937
  C   -0.81956871244871     -1.40831061622370     -0.96400247843824
  N   -1.17195760050094     -2.41579474584863     -1.46419432272270
