19
Coordinates from ORCA-job run
  C   -0.20319937652993     -0.01537932122116     -0.36433734861703
  C   -0.13776777279969     -0.04941824606780      1.15644474974547
  Cl  1.49313842551980     -0.03085170136537     -1.11646580637922
  H   -2.89757653427991      0.84369063818096      1.55832889837060
  H   -1.22152546943441      0.03603999881070      1.43535716742730
  C   -0.96420202424111      1.19178007806237     -0.88012601595312
  H   -1.18055885366093      1.09433863130671     -1.94623073946837
  H   -1.89002502822913      1.25127784626712     -0.27845776928095
  H   -0.37640505048788      2.09648469289522     -0.72022332043533
  C   0.50419430863636      1.19957002845882      1.74447357837587
  H   -0.09416280037673      2.08375473740894      1.51798418426108
  H   0.51412362734608      1.10214764181398      2.83390347429430
  H   1.53323613174848      1.34241066063479      1.39777012588427
  C   0.47833321102834     -1.34647610581103      1.70068268551237
  H   1.29794118547834     -1.13564757629780      2.39434450695193
  H   -0.27582699688364     -1.92872218356792      2.23771456243345
  H   0.88665527691379     -1.98294176687063      0.91133411551269
  C   -0.82973732872093     -1.24566105071334     -0.86034568532199
  N   -1.32673493102689     -2.23015700192457     -1.26659136331329
