16
Coordinates from ORCA-job run
  C   -0.21317364263487     -0.05894808013850     -0.26334165719730
  C   -0.11438128307737     -0.09231489141681      1.27649807086743
  Br  1.65844946925155      0.03644155688105     -1.02266110565699
  F   -2.57764211061156      0.23354556741572      0.83881302511026
  H   -1.22371029609322     -0.21896006335559      1.47614438630396
  C   -0.94083020347005     -1.28983480966953     -0.82488560842807
  H   -0.28628141994855     -1.88540207256835     -1.46141428362880
  H   -1.29570024768756     -1.89521390959373      0.00760852795301
  H   -1.82416921848194     -0.97226365869180     -1.37414855002312
  C   -0.81692472845464      1.19963019289767     -0.70053490722170
  N   -1.14429251147214      2.23675020347683     -1.14838775623761
  N   0.29502094064752      1.13756064754900      1.91945628704907
  H   -0.49518536604725      1.76889961812514      1.84406703418445
  H   1.08841225229434      1.54865027072159      1.43768696607166
  C   0.68327332917552     -1.23064368736891      1.71790260057646
  N   1.29513503661023     -2.16389688426379      2.08875697027731
