19
Coordinates from ORCA-job run
  C   -0.16334385141907     -0.00756441071827     -0.39543068019041
  C   -0.02080476510136      0.05170206080153      1.13179583479034
  Br  1.63306083002440     -0.32581894327936     -1.23810063702521
  F   -2.76944077745169     -0.07194958104096      0.92700628620199
  H   -1.09082998187974      0.17329536603848      1.42189690409389
  N   -1.02706435262931     -1.10355525659720     -0.75827203459559
  H   -1.89801456425625     -0.87629719920480     -0.21027147963378
  H   -0.65207399472088     -1.97151939270918     -0.39096340615224
  C   -0.78219926435951      1.24834804837839     -0.97950211238857
  H   -0.94115234456362      1.08551463067760     -2.04631023127410
  H   -1.75106166671010      1.32769850548846     -0.47562299118737
  H   -0.17337454764802      2.13369291064245     -0.81870347594253
  C   0.56286356758657     -1.20531755139770      1.78741837150932
  H   1.47095144323581     -0.97412570739017      2.34543854164767
  H   -0.16034615852648     -1.63801176773571      2.47981643055978
  H   0.82498776999333     -1.95420153538327      1.03963766694657
  N   0.69670161904877      1.23720018963991      1.70045942433911
  O   1.26401412420035      2.04838192750277      0.96930198713798
  O   0.66614691517679      1.33144770628703      2.93003560116313
