17
Coordinates from ORCA-job run
  C   -0.25388191623891     -0.00428711890900     -0.34536133408467
  C   -0.14160620312728     -0.13235054899901      1.10712203893144
  F   1.06277515303553      0.21976596167079     -1.04071590212336
  H   -2.45101584244682      0.21942088733595      1.91573369316427
  H   -1.57765559045856     -0.08531674761299      1.57597725828733
  H   0.36911274766937     -1.05544821767485      1.40910844832288
  C   -0.77680553196360     -1.28228006637959     -0.97267600808141
  H   -0.17316791604708     -2.13060877672444     -0.63859399479067
  H   -1.81445764638699     -1.44901510535726     -0.66735512829970
  H   -0.72426301705176     -1.22745479253816     -2.06501116934172
  N   0.32183292312070      1.02343282391738      1.85640513712803
  H   -0.49186620005711      1.58286456262864      2.12365878602569
  H   0.93101064566489      1.61164844431946      1.29710288148673
  C   -1.06953892628171      1.20234065214341     -0.76658446171977
  H   -2.05295800879356      1.16397853373074     -0.28552869253339
  H   -0.57138830033410      2.11945397766270     -0.44707886878876
  H   -1.18365637030300      1.23480553078622     -1.85496268358292
