19
Coordinates from ORCA-job run
  C   0.01675672270367     -0.04147818223616     -0.41757633225934
  C   -0.00341380776904     -0.10418196669819      1.00834449660118
  F   1.30605991115543     -0.17078716658121     -1.14660586987975
  H   -3.14694912769205      0.37015239962916      2.22000109541560
  H   -2.46902374083747      0.20741801035659      1.95448471708792
  N   -0.70471287432550     -1.26499593501822     -0.97970161173490
  O   -1.76913176336376     -1.09553728887847     -1.58200299459616
  O   -0.19570426778175     -2.36329359279502     -0.77029022599640
  C   -0.57174982330425      1.22462789054762     -0.99737143495444
  H   -0.65828499568063      1.11928060010801     -2.07833958094639
  H   -1.55292459512935      1.44302569366170     -0.57914880124727
  H   0.11702675064295      2.04349751119899     -0.78302543733464
  C   0.41254155309522      1.11754118633096      1.78765867314162
  H   -0.23043287149964      1.97162305940685      1.55566400267474
  H   0.29003032853676      0.92317523402678      2.85978810973302
  H   1.46176524962770      1.42464403936653      1.62741890911806
  N   0.67598478365237     -1.27690134449190      1.58785832659937
  O   0.01740460241969     -2.05051585177848      2.29597792970317
  O   1.89592796554962     -1.41464429615553      1.41716602887461
