13
Coordinates from ORCA-job run
  C   1.25066037456512     -0.06805244248546     -0.06182965267833
  H   1.32771915280877      1.92046038032956      0.74460689928713
  Cl  -2.23526613288978     -0.93621187014626      0.46499960750191
  Br  3.31207342010482     -0.06020113936932     -0.22441500805532
  C   0.83304779158581      1.38659485482106     -0.06468797424562
  H   -0.25126081290131      1.40397030119438      0.08758539997187
  H   1.07889352574012      1.85720328357446     -1.01896700475899
  N   0.73006988525004     -0.76993881494910     -1.18814175566835
  H   0.01152577311089     -0.21490552400137     -1.63483956772068
  H   0.26724818885114     -1.61019275352670     -0.86664564954185
  N   1.00510365007373     -0.65128885083658      1.22975749980765
  H   1.38229911513511     -1.59298542691526      1.24649000179570
  H   -0.01663393143443     -0.72897199768941      1.29816720430486
