12
Coordinates from ORCA-job run
  C   0.53243337714330     -0.05949973522391      0.05615540501072
  H   1.55624575387788      1.81657584019353      0.33662677910549
  Br  -1.91606934108065     -0.19788330769268      0.26352460015814
  Cl  2.79701475432341     -0.25376910479631     -0.54772158781737
  C   0.56923530573173      1.44607147300336      0.06921035452993
  H   0.37804022095466     -0.61574939297966     -0.84760093258432
  H   -0.18256559821969      1.86774326348249      0.73157241799350
  C   0.75218482318677     -0.71713301467623      1.30939638063423
  N   0.93947244916074     -1.21114329467738      2.36185340601029
  N   0.28423901348271      2.02916329090183     -1.27726401755838
  O   0.23733405133930      3.25789538135576     -1.30665842224562
  O   0.13225519009985      1.29040860110919     -2.24103438323660
