14
Coordinates from ORCA-job run
  C   0.12151651233296     -0.19045779565025     -0.22965327478615
  C   -0.24323123587355     -0.07132516766046      1.21757551070566
  Cl  1.87412875374163     -0.38101187398443     -0.56239493381579
  H   -2.14735576097748      1.36396798264262      0.67349508239293
  H   -1.38981360034027      0.28993167905850      1.07709646312048
  H   -0.21125810988728      0.72908905415475     -0.71864475605620
  N   -0.60014540907945     -1.29744081076577     -0.96812973685580
  O   -1.24800955938663     -2.10712205777700     -0.31350330141389
  O   -0.51339071451958     -1.27434515956720     -2.19315360456035
  C   -0.00026424632393     -1.24959965279996      2.01943500300199
  N   0.19927745749493     -2.18565295104185      2.70570018585103
  N   0.29761025193628      1.12703187840653      1.82667469749833
  H   1.21654946687580      1.34947128863649      1.46344716990499
  H   -0.37076380599343      1.86097358634803      1.55827549501278
