13
Coordinates from ORCA-job run
  C   -0.03663570445369      0.12702746182277     -0.44913116831248
  C   -0.04993002166487      0.18808645073575      1.01040055779717
  F   1.31138516280647      0.01727442613712     -1.03866311362503
  H   -2.24936517530982     -0.77197530539330      1.56969000444587
  H   -1.50415387263281     -0.19574429295521      1.36492909962727
  H   -0.42942741376471      1.05111650104219     -0.89098134500872
  H   0.30555096330109      1.14636476666408      1.40704338913733
  N   -0.72699440191418     -1.02306961281066     -1.03697876902614
  H   -1.53032586297819     -1.19855719420633     -0.43280304330720
  H   -0.10836011632769     -1.81481387541570     -0.89645221254441
  N   0.52984831035287     -0.95261224900427      1.70130071949097
  H   -0.20908643129857     -1.64333958054205      1.86386344079188
  H   1.25276456388412     -1.39701749607440      1.14441244053346
