13
Coordinates from ORCA-job run
  C   -0.22519828451330     -0.11217440569178     -0.33675251579830
  C   0.21667379248083     -0.17442077236259      0.94838195861346
  F   1.34389658114388      1.17869385985300     -1.10738320414799
  Cl  -2.69163774947958      0.27054928976548      2.19922137163233
  H   -1.60111544987985     -0.05197758429848      1.48374220308636
  H   -0.33693379650147     -1.01255804035938     -0.92836026863707
  H   -0.64071256191532      0.80650608715382     -0.70968236931808
  N   0.84278633537345      0.93269978218342      1.51346885638408
  H   0.31666065569162      1.42969188587725      2.21698717508415
  H   1.13981110191936      1.47909874820367      0.69336467981962
  N   0.57891568103672     -1.49135272276224      1.50102652458781
  O   0.13459699727374     -2.49872130463873      0.93728664406539
  O   1.23919669736990     -1.52588482292344      2.54007894462824
