15
Coordinates from ORCA-job run
  C   -0.48124616138252      0.02961374515147     -0.29041624378814
  C   -0.45145364677427     -0.08366772067685      1.09012395230165
  Cl  1.95716259014389     -0.13003320607217     -0.88740379069754
  Br  -3.37694124976802     -0.30415399093701      2.01241801052557
  H   -1.85518062712442     -0.11886204811083      1.31659693397727
  H   -0.23046285970758      0.83444886703769      1.64212021293288
  C   -0.74506157724406      1.33977138602423     -0.81218350654639
  N   -1.01829925069211      2.40379091190451     -1.23873508450496
  N   -0.00561919339472     -1.33058407222885      1.61087494088680
  H   -0.02000545434962     -1.32422856522767      2.62108459155046
  H   0.94610655196504     -1.46671682518011      1.27265293341134
  C   -0.86669460583967     -1.12825728750750     -1.16234364887654
  H   -1.95333759071741     -1.27205966976494     -1.08037064507721
  H   -0.59739704928357     -0.93123395253620     -2.19816570694596
  H   -0.36793987583093     -2.03379757187580     -0.82929294914922
