15
Coordinates from ORCA-job run
  C   -0.13474913773734      0.05209731257007     -0.49996503291163
  C   0.06526932264637      0.07351949993113      0.99328603485451
  F   1.09730075779948     -0.00536286029281     -1.18899959251305
  H   -2.26829740813200     -0.53466572558287      1.54883802020551
  H   -1.16602550484837     -0.06654264499996      1.38139344785594
  H   -0.61587461067749      0.98258339118796     -0.82020903344297
  N   -0.92554908241102     -1.06229474463386     -0.97111137298033
  H   -1.73600412775120     -1.09661195879345     -0.34305015583554
  H   -0.39256529676426     -1.90465394648295     -0.77646441202105
  C   0.65906553804770      1.29095273898235      1.45712174373171
  N   1.11001957460015      2.30795136146167      1.85525622476432
  C   0.70764624644460     -1.18424513215560      1.55563009181554
  H   1.01986827568159     -1.02141106956245      2.59040227716285
  H   1.58159426508973     -1.51276591605866      0.98206748390828
  H   -0.04160881198791     -1.98624030557057      1.57026427540591
