17
Coordinates from ORCA-job run
  C   -0.19240125629692     -0.12690870680381     -0.26923652938996
  C   -0.16062640733545      0.04172136259363      1.17806944040226
  Br  1.70727300561867     -0.17119208167504     -1.20111116603001
  F   -2.65925231388185     -0.36269826147900      1.53989047329638
  H   -1.41806547505402     -0.04728419302966      1.42744482771270
  H   0.21081943370972     -0.90058339322073      1.59582074062556
  N   -0.81763803776845      1.07862576738394     -0.95812138600694
  O   -0.34149000481623      2.18508853050966     -0.72167555241347
  O   -1.78094852568208      0.87901438347137     -1.69612439184046
  C   0.53465741874808      1.23284517471851      1.80808767434777
  H   -0.02079248863942      2.15912845329021      1.65831323098481
  H   0.61311141884615      1.06472016756814      2.88709405832840
  H   1.54569950059604      1.38520991606560      1.40942287310231
  C   -0.88369512038814     -1.39607431157547     -0.70356214587790
  H   -0.30313926964503     -2.24227525269191     -0.33226455509990
  H   -1.86251774866100     -1.38021052052637     -0.21739984202605
  H   -0.97372412935005     -1.46496703459906     -1.78570775011549
