13
Coordinates from ORCA-job run
  C   1.01545689976395      0.42619545856233     -0.06178171567338
  H   1.15508475252507      2.45090145168094      0.34120809119347
  F   -1.29432020470766     -0.13152667095658     -0.29442538006860
  Br  3.36910407479269     -2.66240643543878      0.43821870744930
  C   0.34196087038521      1.73775432373623      0.12631563006773
  H   1.69624224098308      0.32076494621305     -0.90428234870165
  H   -0.31776625332204      1.67496435037531      0.99818219696243
  N   1.03210530462845     -0.52201351059076      0.79865938729366
  H   1.65686360805519     -1.34714943190128      0.66324774448229
  H   0.24692999125306     -0.56179800569619      1.43463775223858
  N   -0.32290966572267      2.09361945119811     -1.11742573705347
  H   -0.76900582545758      2.99621333463353     -1.00224815414367
  H   -1.03841579317674      1.34895073818407     -1.14564617404671
