13
Coordinates from ORCA-job run
  C   -0.04364281796518      0.17494551638489     -0.39486472710003
  C   -0.00354950964690      0.16511815371378      1.06631342202877
  F   1.24500952791461     -0.06376425611897     -1.03450813688832
  H   -2.29239068416954     -0.70735085622299      1.37996645968903
  H   -1.48355049873145     -0.18994338628791      1.30961756714417
  H   -0.65191273606847     -0.66619210739424     -0.76458045878590
  H   0.38800358263400      1.10130253087608      1.49053914958924
  N   -0.55897574577086      1.39859111612066     -0.98829221161339
  H   -0.19185542803696      2.16360756781813     -0.42837377507218
  H   -1.55957964464544      1.38502903047354     -0.81312356345058
  N   0.57171673660720     -1.02200190971111      1.67824456052281
  H   -0.18113188523989     -1.70831504006236      1.78789591952930
  H   1.26402910311890     -1.43863635958948      1.06375579440709
