17
Coordinates from ORCA-job run
  C   0.51446345454599     -0.10118247391658     -0.03238674415588
  H   1.53054135287825      1.71135057000231     -0.45970784649960
  F   -1.10248371342892     -0.24752289439823     -0.38999592942805
  H   2.29434627505368      0.05019007399927      0.47060609904901
  C   0.53517313518587      1.43907533553561     -0.11411190160331
  N   0.95316536756136     -0.77240356133734     -1.24188710517277
  H   0.21220337622518     -1.41335970533299     -1.50252392117978
  H   1.80979368007753     -1.26043574026954     -1.03942034000865
  N   0.32957705833311     -0.75882658106753      1.25154294907675
  H   1.19610444566344     -1.20367286741670      1.50171700654670
  H   -0.42775852558454     -1.42322071408420      1.13619922234171
  C   0.27848550621422      2.07560512304506      1.24528283125249
  H   -0.69843164284659      1.76846491763363      1.61960084479159
  H   1.04405249764031      1.71317421246537      1.93203920789732
  H   0.31994328121761      3.16734315268583      1.17785452844181
  C   -0.40627064894477      1.97790841534663     -1.11271332889877
  N   -1.06228489979175      2.53283273710941     -1.91482557245056
