14
Coordinates from ORCA-job run
  C   -0.17249898750489     -0.00416238539676     -0.35771177403645
  C   -0.14833047991797      0.02721955586385      1.15839906600186
  Br  1.69223989279597     -0.01443359220336     -1.12019506727772
  H   -2.89941967848710     -0.17704017844238      1.22382357502878
  H   -1.25694847909574      0.09277425323990      1.39281645513104
  H   0.37299073650893      0.93777953861590      1.47032457388784
  C   -0.79571921213294      1.19959068616684     -0.91237837824885
  N   -1.21141808197625      2.19632674892266     -1.37644771728599
  C   0.41321943374161     -1.23051795632553      1.79225624626691
  H   1.42272919795297     -1.47829236394735      1.45011073639407
  H   0.44129388941168     -1.09953597975605      2.87735375129526
  H   -0.25257585023075     -2.07314771573222      1.58615054110835
  C   -0.80886389984444     -1.20779129123064     -0.90070346005677
  N   -1.19797848122108     -2.19583931977482     -1.40588854820837
