13
Coordinates from ORCA-job run
  C   -0.21425636270751      0.02736741729653     -0.34775591757171
  C   0.04400209735849      0.20297101998995      1.16627432233514
  Br  1.46950969433429      0.13208445552221     -1.37793228396390
  H   -2.49371766080654     -0.76549797142554      1.60678844472029
  H   -0.86127608500987      0.69914965370789      1.52666319241539
  H   -0.84918826008281      0.81202793849325     -0.75116843707014
  H   0.90588758999952      0.87432911523890      1.25364159679347
  N   0.19403011914820     -0.96606470186952      1.99126665410594
  H   0.73559295861177     -1.67524639145808      1.51492535498548
  H   -0.78268263900447     -1.30060938339766      2.07445494791817
  N   -0.85285303697551     -1.25248750664562     -0.80565627897801
  O   -1.81365834251334     -1.13877565726585     -1.56173757485228
  O   -0.31662007235222     -2.30864798818643     -0.48598402083786
