13
Coordinates from ORCA-job run
  C   -0.20993922539009      0.08346440388195     -0.35256180291538
  C   -0.16952267629685      0.05843542906966      1.12330868082753
  Br  1.58554108948371     -0.20912226913150     -1.33631123825812
  H   -2.59157248694505     -0.69787339648438      1.74383617701134
  H   -1.32429176921261     -0.10509350620014      1.41669513488024
  H   -0.80102859261794     -0.75445507220282     -0.73368936354233
  H   0.20623290245231      0.99808140650844      1.53846453419189
  C   -0.72194725275995      1.33461992594514     -0.88984025596708
  N   -1.13836999705707      2.35356094369955     -1.30265233572560
  C   0.49983144605622     -1.16424766287940      1.71500709187493
  H   1.57336159624290     -1.21201833142989      1.50735479165226
  H   0.34090963121704     -1.17251337458620      2.79710266026468
  H   0.02044533482734     -2.06674849619042      1.32290592570564
