18
Coordinates from ORCA-job run
  C   -0.26026718986920     -0.00635779483400     -0.28320381139152
  C   -0.11364213437908     -0.01679204208032      1.14341197242624
  Cl  1.57962116799066     -0.12466766352256     -1.27338469775927
  F   -2.64742966852081      0.15729785245626      1.52498270605107
  H   -1.49324903081787      0.06236349922849      1.42512972663411
  H   0.23964908092380     -0.98624625596839      1.50929523580338
  C   -0.80723160936666      1.28128274391649     -0.86399342333826
  H   -0.90451803785624      1.21214349151559     -1.94928553040493
  H   -1.78909902503071      1.43531589873617     -0.40565956461466
  H   -0.16190170635765      2.12909665212857     -0.63242885258961
  C   0.58719514228330      1.15636065295419      1.79856285052821
  H   -0.00410787081931      2.07480690645119      1.72228630187543
  H   0.72912023229453      0.96466133862063      2.86746372505300
  H   1.57501349276394      1.35188594673759      1.35641041914442
  C   -0.96229670563185     -1.23151866020152     -0.82932917084847
  H   -0.45043809604584     -2.14061697702448     -0.50684056756324
  H   -1.97423491575560     -1.22365799667555     -0.41416163406096
  H   -0.99932312580542     -1.22015759243832     -1.92056568494493
