15
Coordinates from ORCA-job run
  C   0.04871969162384     -0.10191779381074     -0.05639752274997
  H   1.77075930065901      1.01866570457274      0.10468822907721
  Cl  -1.80074742753669      0.10520279510018     -0.23570529055476
  F   2.94173122161470     -0.12807923731177      0.22368665037331
  C   0.66872911290923      1.28732831404001      0.05211956579246
  H   0.43852118280861      1.88084860426491     -0.83641549239718
  C   0.54650418528142     -0.76824233022725     -1.32377897996027
  H   0.13624839310748     -1.77956155797772     -1.39858339179844
  H   0.25189394523268     -0.20839380619897     -2.21397810384699
  H   1.63626928275767     -0.78398386806316     -1.20036870060279
  N   0.32830696118279     -0.89635971496306      1.10252320055060
  H   0.94587735930475     -0.36407920395598      1.70360905856733
  H   0.90345433698713     -1.67357055059636      0.80364362618324
  C   0.25357483981747      2.01862086143611      1.23820881496171
  N   -0.04550238575012      2.60920178369106      2.20936833640460
