11
Coordinates from ORCA-job run
  C   -0.17632597731795      0.05981090044389     -0.40968151405304
  C   -0.32277286850028     -0.08202357087919      1.01115791796228
  Cl  1.70582249567482      0.28613682321433     -1.06943535899719
  F   -2.57767929789865     -0.45722600641426      2.03953056937745
  H   -1.62881773748113     -0.18483265624297      1.38130462949729
  H   -0.44553073461331     -0.83902110212722     -0.95846477774147
  H   0.02072445986678      0.80709392935947      1.56152445060443
  N   0.17265683778482     -1.35595744507844      1.52648251624617
  H   -0.43143123068017     -1.61154710877636      2.29826651239496
  H   1.12158458122272     -1.26778883369102      1.87290693874046
  H   -0.61251052805765      0.96590507019175     -0.82644188403134
