14
Coordinates from ORCA-job run
  C   0.79891530703652     -0.00417460077878      0.00357674201027
  H   1.65004582792118      1.95824159768397      0.17034729076045
  F   -1.21554007243868     -0.02054644468140     -0.01089453342848
  Br  3.24027182264827     -0.18833863265629     -0.20798930829840
  C   0.66996274343839      1.50419488970844      0.03329319250701
  H   0.06463030362906      1.69514408935557      0.92777701788387
  C   0.64774256661444     -0.73340051931353     -1.24271153353515
  N   0.51440187706964     -1.38819096066967     -2.21227318392379
  N   0.76353089699080     -0.68125710030459      1.25608291884560
  H   1.28353299758792     -1.54550568086963      1.18512293624951
  H   -0.22903083682116     -0.86596608891652      1.38200999966171
  N   0.07387155852509      1.97791464053408     -1.20549524156346
  H   0.01799840048576      2.98852509624999     -1.18651764879399
  H   -0.86171339268722      1.58559971465837     -1.20767864837517
