16
Coordinates from ORCA-job run
  C   -0.63285697388861      0.16746513696112     -0.17132992146670
  C   -0.14778339108388      0.06463463877197      1.16680198347729
  Br  2.39809814738661     -2.47635377250020     -1.08374897661804
  H   -2.41859423026940      0.48036325372149      1.89699377247852
  H   -1.33267292022985      0.02489772904725      1.70938463117208
  H   0.46571505834873     -0.82061591455514      1.32602683666316
  N   -0.41323858550594     -0.77430636449819     -1.09526510538539
  H   -0.84331128834310     -0.67594861268388     -2.00121812591086
  H   0.44450346926658     -1.34962322048942     -1.06873680500451
  N   -1.54098091976301      1.16201415030542     -0.36700067218483
  H   -2.14459792205507      1.20189546575544      0.50467878134166
  H   -2.09126701749600      1.06865278437319     -1.21240902757112
  C   0.37454322109963      1.33234946023358      1.82328750394025
  H   0.69303228540732      1.10703500060095      2.84517945187225
  H   1.22527754521372      1.76154154008008      1.28664547556472
  H   -0.41631647808771      2.08506872487636      1.88644019763153
