19
Coordinates from ORCA-job run
  C   0.25098421159119     -0.07949140267727      0.04738661462288
  H   1.50130312557165      1.53437612154093     -0.02622857483925
  Br  -1.85905028689788     -0.45118326454482      0.39187455803774
  Cl  3.96852525333090     -1.19924741285551      0.50659176984996
  C   0.40494350456757      1.43848893672972     -0.01260995076977
  N   0.59675600559182     -0.69357184084345     -1.15945964719183
  H   -0.05138258536606     -0.54756097856643     -1.91845742577574
  H   0.85942650756568     -1.66206415287429     -1.04998079939673
  N   0.88086756942741     -0.61703980377425      1.19868003333899
  H   1.90464140590256     -0.61140910698476      1.04598636699059
  H   0.61789555881525     -1.58952645010660      1.31129785184684
  C   -0.12297775047177      2.15323167679033      1.22490129640955
  H   -1.21055050209906      2.24512274830616      1.18771356115936
  H   0.15076126819379      1.59945181480682      2.12233288842673
  H   0.30735385161141      3.15855378579562      1.28038453845709
  C   -0.14171835654962      2.05369643356675     -1.29516715671143
  H   0.37505475461183      1.66867113377277     -2.17673723868189
  H   -1.21348392678694      1.85375603455536     -1.38833004057770
  H   -0.00159960860978      3.13834572736291     -1.27606864519543
