12
Coordinates from ORCA-job run
  C   0.62682044428282     -0.04637753778970     -0.01163466184350
  H   1.69003496447648      1.80563651494570      0.13513766050890
  Cl  -1.72493732150093     -0.06822258124772     -0.00778062297082
  Br  2.98167323075291     -0.43665787480878     -0.11117989341984
  C   0.65881611501946      1.46297270243855      0.00887456944614
  H   0.51782507909378     -0.56172079865984     -0.94499944473456
  H   0.57720398161994     -0.56544731283114      0.92615327535999
  N   -0.02807085586683      2.02589408384314      1.23934189541382
  O   -0.65143371923494      3.07180279700842      1.11415651550212
  O   0.20397172624864      1.44184757285798      2.28828819498301
  C   0.12557821226934      2.07222659503493     -1.20391826951027
  N   -0.18106185716067      2.58451583920846     -2.21468921873499
