11
Coordinates from ORCA-job run
  C   0.64160818068916      0.02807873133797      0.00076392059425
  H   1.70284662294211      1.86146925512209      0.09408276730217
  Cl  -1.69076225948031     -0.12808442476506      0.14715201087530
  Cl  2.97934733395872     -0.41413754312850     -0.09770357461465
  C   0.66878975110303      1.53078426417322      0.00693143310082
  H   0.58555336822121     -0.49514836268882     -0.93510246836172
  H   0.68005375301163     -0.52552614840372      0.91833868339684
  H   0.12148741317942      1.86647679789578      0.89767113995467
  N   0.12259819656909      2.05416984482338     -1.24489229114089
  H   0.16521210273954      3.06600238431956     -1.22070318838396
  H   -0.85481446293361      1.78595520131409     -1.27329843272284
