15
Coordinates from ORCA-job run
  C   -0.06875264181901     -0.04236305834185     -0.42832685109969
  C   -0.30463728148248      0.12181051338873      1.02977561572779
  Cl  1.77411310321390     -0.17283349642893     -0.89191580708513
  H   -2.29210119289137      0.15188045100655      2.44329500454694
  H   -1.46189681531865      0.14870584700253      1.29273636546655
  C   -0.65907741349628     -1.27833522694640     -0.94494170406249
  N   -1.14370292574869     -2.27538322395416     -1.33722381671637
  N   0.15089181601167      1.41022107427903      1.47721295491222
  H   1.06545335687981      1.28395187161299      1.89909246904220
  H   -0.50219532430088      1.67574391350641      2.21676191251843
  N   0.23092528121168     -0.97409294307467      1.82499670527345
  H   0.19853620312427     -1.84632108081091      1.30332771644418
  H   -0.46951718471448     -1.06076013951847      2.57326058272719
  C   -0.56429505903413      1.10631162247336     -1.18169825459913
  N   -0.98557392163537      2.00031387580580     -1.81779289309613
