19
Coordinates from ORCA-job run
  C   -0.15928302018685     -0.06224552966647     -0.29483105183573
  C   -0.18326020860503      0.07128069423894      1.17130674365304
  Cl  1.61723390146531     -0.20285810612320     -1.04148031191887
  H   -2.47465411018431     -0.61306578820964      1.81184284577024
  H   -1.39824434715009     -0.01635952095343      1.43155295732635
  N   -0.72627970833501      1.19932997031279     -0.91986074662451
  O   -0.02271424954642      2.20336984057264     -0.98499983379842
  O   -1.91081518152053      1.15087121377125     -1.25773776034329
  C   0.42123556964478      1.31971441323262      1.77592428323319
  H   -0.06736094980140      2.23648388925898      1.43820165268640
  H   0.29698426745428      1.23923719494133      2.85816507947235
  H   1.49247608540751      1.40218807386407      1.55574548761920
  N   0.26461978134903     -1.12912221837417      1.85705081391555
  H   0.94815993308038     -1.64153902887061      1.31172466166788
  H   -0.56638067540092     -1.70683472537468      2.00653264681207
  C   -0.92259519706040     -1.25767885893937     -0.79660424147014
  H   -0.37559233453839     -2.16491634159501     -0.54587694997002
  H   -1.88811797549483     -1.27297385054201     -0.27364550773469
  H   -1.06270158057707     -1.21425132154406     -1.87699076846065
