12
Coordinates from ORCA-job run
  C   -0.41635650876398      0.20466107637055     -0.26775242704411
  C   -0.16064790209187      0.22928150193668      1.24625787881432
  Cl  1.22617973538586     -0.39533341379898     -1.11879869393238
  Br  -2.08549770032460     -3.26048274571060      1.26523078535675
  H   -0.15608181821735      1.25392448699947      1.62127317583013
  H   0.79321900211344     -0.23633956478829      1.48139181163647
  H   -0.94726539079948     -0.34063720431018      1.74110036838537
  N   -1.51725741822746     -0.56110953301061     -0.58243550445724
  H   -1.68691006268762     -0.70021214663341     -1.56730312506265
  H   -1.63362245809070     -1.41614110986680     -0.01875461196689
  C   -0.52485473242768      1.55439861049214     -0.84187832111365
  N   -0.65685474586861      2.63733004232004     -1.27822133644607
