17
Coordinates from ORCA-job run
  C   -0.26922552381312     -0.02840996337355     -0.28941934999231
  C   -0.14855273020630     -0.02552353599931      1.15004485803209
  Br  1.89204518498171     -0.00651906214458     -1.23648881555502
  H   -2.62604024187022      0.44172038914185      1.19622289929839
  H   -1.37857974026030      0.06617535455850      1.34184242818601
  H   0.22360580821522     -0.97215789616127      1.55053810242198
  C   -0.85797564344325     -1.28958377331395     -0.84315096071292
  H   -0.32459640524029     -2.17373598676525     -0.49206201438862
  H   -1.89787230917188     -1.31803627160054     -0.47294424594265
  H   -0.86231453177158     -1.26341871989815     -1.93198367277245
  N   -0.90965784904703      1.09932895509052     -0.85592039597898
  H   -0.47112569343941      1.94079066605498     -0.49606526783245
  H   -1.85378597218426      1.05728868882168     -0.39703313376528
  C   0.45158173564548      1.18546434389760      1.82979174858383
  H   -0.17902689359478      2.06860183477547      1.68507403712543
  H   0.52166150274211      1.02065634869667      2.90913662231190
  H   1.45329930245791      1.39632862821934      1.44068716098105
