13
Coordinates from ORCA-job run
  C   -0.19619877159575      0.05534164811665     -0.37511606117456
  C   -0.20768168123779      0.09648313435326      1.12406293980549
  Cl  1.53576762593318     -0.15355577032633     -1.08501229029138
  H   -2.46899548252960     -0.69179143294515      2.01037416992127
  H   -1.34629510460107      0.08306874445972      1.44774825519962
  H   0.29340162743498      1.01437012781193      1.45072620079707
  C   -0.68992544977735      1.30807349909311     -0.94464177766860
  N   -1.08729508418852      2.33235645748773     -1.36272881292288
  N   0.26678208417754     -1.09324660696728      1.78003384566404
  H   0.89538457803527     -1.64182538392672      1.20790907035138
  H   -0.57854908866967     -1.62633538105048      2.01189361315998
  C   -0.94926599337248     -1.08020239528829     -0.91099038018211
  N   -1.53948925960873     -1.98805664081817     -1.36718877265935
