19
Coordinates from ORCA-job run
  C   -0.01016182792356     -0.05282734767061     -0.34700398636432
  C   -0.08921586217133      0.03663230733715      1.11345566593937
  F   1.31889581184748     -0.01819923221263     -0.90057176687130
  H   -2.32066363153823     -0.66332595017388      1.73342253842531
  H   -1.44050321985783     -0.16659026609154      1.40897160053532
  C   -0.68316716740029     -1.27271617125486     -0.92766101215813
  H   -0.06549671550219     -2.14501958216832     -0.71382527533278
  H   -1.66124257123235     -1.40307671596277     -0.45786340354027
  H   -0.79049764932170     -1.17538039040358     -2.01010384217442
  N   -0.65785997788412      1.18843583413060     -0.94776932088705
  O   0.04264528075493      2.18504722197713     -1.11916051529926
  O   -1.86607444061015      1.13515339175495     -1.18193028641461
  C   0.45249239053906      1.28821881740271      1.76506259958821
  H   -0.00837510824326      2.20204428204026      1.37730272523865
  H   0.22451747262693      1.22356541596663      2.83364342873141
  H   1.54303843369752      1.39710800782429      1.66385552195681
  N   0.35976264533053     -1.16778937635862      1.78963886697674
  H   -0.46058795502997     -1.76328722198234      1.94644555598289
  H   1.05026409191852     -1.68614302415458      1.25934090566745
