16
Coordinates from ORCA-job run
  C   0.73541837200965      0.12426804923082     -0.04938496854055
  H   1.16413439347369      2.14796704668300     -0.40382176399755
  F   -1.44758900923348     -0.26056438771448      0.13355244627630
  Cl  2.78062925051657     -3.04399325955566      0.37481691524167
  C   0.29201510706613      1.55656582343122     -0.08698441636446
  H   -0.47250364430383      1.62708066676577     -0.85476941707953
  N   0.65072691132902     -0.62341127539443     -1.18011522479621
  H   -0.35999810852724     -0.68269367171642     -1.32971342492412
  H   1.07626583801962     -1.53955871379817     -1.05888235175246
  N   1.51894360231244     -0.27721293421954      0.92296054980012
  H   1.66328514843096      0.30688498255611      1.72659338441741
  H   1.91520709102885     -1.23408112503147      0.90993722488507
  C   -0.27661401915333      2.05192277993041      1.23589046822710
  H   -1.08562855917804      1.36477246874639      1.48042896087580
  H   0.46684045222030      2.07594384215336      2.04025598406502
  H   -0.66318282601130      3.06965970793312      1.13043563366639
