13
Coordinates from ORCA-job run
  C   1.07861598957716      0.01079050174099      0.01942074623960
  H   0.92662540577939      1.99762915431209      0.81796530644783
  F   -1.41405750246352     -0.38275625008348      0.00725601494280
  Br  3.11518043755699      0.17613496141924     -0.15451361509575
  C   0.53834296969742      1.42979237120022     -0.03197776578799
  H   -0.54374986355999      1.25959640977020      0.02282902389984
  H   0.82529392348796      1.92808238456105     -0.96047448571357
  C   0.69980375409444     -0.76623419091804     -1.16070628486920
  N   0.61863677134163     -1.37672372377559     -2.16333833598103
  C   0.78154674822511     -0.72349097577820      1.33713793883873
  H   0.18391009713940     -1.60423696020673      1.12677760164411
  H   1.69922318849054     -0.97924935405601      1.87056797708138
  H   0.15101808063345     -0.08261432818573      1.95036587835326
