14
Coordinates from ORCA-job run
  C   -0.39416822453635     -0.02430037630090     -0.28464840291345
  C   0.11760339151888     -0.09677668416971      1.13915187050981
  Cl  1.34969925233400      1.36430147260772     -0.96885328143431
  F   -2.22720474382473      2.11299018265179      1.48112830883642
  H   0.04018504487698      0.91007587930911      1.54971392780990
  H   1.16923670636458     -0.38336827077007      1.14914839060022
  N   -0.04769689808543     -1.30821801795916     -1.07022161701268
  O   -0.83938424086731     -2.22075956587593     -0.80585683157856
  O   0.88855644239034     -1.40019709120902     -1.84954853677143
  N   -1.54743238463464      0.50886131945798     -0.49412478313593
  H   -1.88795987499501      0.36912324727855     -1.44032743554570
  H   -2.06164538027828      1.57996949811397      0.70933942420695
  C   -0.66503649950714     -1.01902466172730      1.96835633105977
  N   -1.25169259075588     -1.75061693140700      2.67477263536900
