13
Coordinates from ORCA-job run
  C   -0.40924769700664     -0.03490716503508     -0.26797453468923
  C   0.04979924951468      0.02798753620591      1.01055861014728
  F   1.32623976627908     -0.90499949643405     -1.13976724742031
  Br  -2.95516554255087      0.40038977945606      2.39508797128245
  H   -1.74206074878612      0.17740226648985      1.51374537012281
  H   -0.66200596415317      0.86210125790978     -0.81601946620578
  H   0.28328127057462      1.02091653787619      1.38808682665367
  N   0.57776227662295     -1.08322478532499      1.67681511563265
  H   1.29736357902312     -0.79031463505941      2.32160297028918
  H   0.98032343458610     -1.66241637984153      0.94103144197950
  N   -1.00430209535672     -1.20251583876247     -0.87931630126278
  O   -1.55754510211095     -1.01878050016582     -1.96801066806095
  O   -1.00687242663608     -2.27263857731442     -0.27328008846848
