11
Coordinates from ORCA-job run
  C   0.31318125626044      0.03132392195648     -0.04527849867444
  H   1.81865571758438      1.50762127433969     -0.04602175988677
  Cl  -1.57960692711952      0.03942846316376     -0.10328150013241
  H   2.59510276577861     -0.54600827515705      0.29097772653544
  C   0.73503029094702      1.47434936044911      0.00056654787631
  H   0.58280890570199     -0.59512725657192      0.78886772235197
  H   0.38540761403131      1.90549279058367      0.94192204646420
  H   0.28975360297173      2.01743177856645     -0.83245743897728
  N   0.71311973629330     -0.68603303335252     -1.28864071613355
  O   0.98382958946147      0.00595797956016     -2.27493503326207
  O   0.53481744808930     -1.90304700353785     -1.31177909616138
