13
Coordinates from ORCA-job run
  C   -0.04189245351097      0.08581738060698     -0.29903940050343
  C   -0.11200995254168      0.18164372665155      1.13112279477774
  Cl  1.47023902424154     -0.50066728328033     -1.02368134086687
  H   -2.18861388535196     -0.86992924474947      1.22811557163393
  H   -1.29175745692844     -0.39927929119171      1.41335218780605
  H   -0.24149982533755      1.18100062051082      1.52902840817206
  H   0.62014236947806     -0.43115085051388      1.64910558137442
  N   -1.19738169858336     -1.09330314780523     -0.75645896974038
  O   -2.35937582527773     -0.62805035672925     -0.52963779073150
  O   -0.90059497135397     -2.23316938674292     -0.36299015819838
  N   -0.55118993863479      1.27710608514816     -1.03572963472357
  O   -1.07610741621536      2.18477999967548     -0.38916072579349
  O   -0.48348796998378      1.24570174841979     -2.26388652320659
