16
Coordinates from ORCA-job run
  C   0.65976165049520     -0.06862534291829      0.02374283141342
  H   1.64401754288519      1.83880163631043     -0.09848531122339
  F   -1.19737849777154      0.03897630591585     -0.00468657131060
  F   2.52055450612552     -0.00586803997228      0.06082935971651
  C   0.62844772053574      1.45872793281018     -0.00024126381017
  H   0.02590026682823      1.77152988629560     -0.85383821788306
  C   0.71114058079919     -0.80859872869225     -1.29284416510471
  H   -0.26693478365632     -1.23035356322653     -1.51504461133087
  H   1.00178988874175     -0.12187317714606     -2.09196686925516
  H   1.47352985190558     -1.58412086553015     -1.23707561963661
  C   0.63382259851107     -0.86983688176469      1.30400389533518
  H   1.51600456016636     -1.50575250810261      1.34019015478436
  H   0.65448627559631     -0.20364319012645      2.16860542310371
  H   -0.28174168095321     -1.45695641355525      1.34409588810928
  C   0.01494277802750      2.04871290017932      1.18659620039710
  N   -0.41981325823655      2.59688004952318      2.12933887669501
