14
Coordinates from ORCA-job run
  C   -0.21892593908565     -0.02618147473312     -0.35707599406902
  C   0.06967651958312     -0.15655507470886      1.13147772183795
  Br  1.59873944607112     -0.26973005709636     -1.26392250773032
  Br  -3.85283228446080     -0.07915593282430      0.93926131005327
  H   -0.89510095424342     -0.05845486844976      1.64004037694810
  H   0.75899337191064      0.61576128623266      1.48160656245682
  H   0.49550498023763     -1.13722150029445      1.35907480482200
  N   -1.07484185887159     -1.04003574896017     -0.88954689789838
  H   -2.02294039799461     -0.83507757544166     -0.55243135406877
  H   -0.81027245712101     -1.94403902403597     -0.51185743051915
  C   -0.76762105935896      1.36010031816367     -0.71699809966879
  H   -0.10541692334667      1.90284899869707     -1.39011894850051
  H   -1.74145304017964      1.24653133188291     -1.19251485380176
  H   -0.91801940314017      1.95212932156834      0.18718531013850
