12
Coordinates from ORCA-job run
  C   -0.30420716813039      0.09630733581600     -0.10450051581462
  C   -0.14789002782421     -0.33994544090822      1.33145445888549
  F   0.78256548498396      0.94532313336517     -0.39153038083043
  F   -2.40273806978531      0.88418827135373      1.08138546015554
  H   -0.18436028731938      0.53503255300633      1.97374665646521
  H   0.80811273062315     -0.86359599193152      1.42815024978830
  N   -0.13237723927961     -1.04717042010725     -0.99241138386314
  H   -0.42985368452057     -0.72122940702754     -1.90827961257765
  H   -0.81793002794632     -1.74006817092497     -0.70909939261870
  C   -1.54782384596939      0.86218217075625     -0.48548881088883
  N   -2.01419170997156      1.31189052682805     -1.48757635570648
  H   -0.97853615486031     -0.98034456022601      1.62012962700531
