12
Coordinates from ORCA-job run
  C   -0.33074394172374      0.05168791885279     -0.13711861431406
  C   -0.28243797650916     -0.28468783136281      1.33556889274598
  Cl  1.35050017323995      0.34512490836174     -0.69210404866671
  F   -2.06101575039879      1.47477545829006      0.83497776551321
  H   -1.28668235309410     -0.48970801384504      1.68381120623804
  H   0.09281516068753      0.58677066888119      1.86731276129960
  H   0.37981452855484     -1.13952410577138      1.50173374483547
  N   -0.84901919240000     -1.17612193908249     -0.90570829803357
  O   -1.71085821072577     -1.83464046975183     -0.32580179513123
  O   -0.43986004013827     -1.39229460526742     -2.03705162897417
  C   -1.20899536808290      1.19528790267597     -0.60366196527780
  N   -1.38498702940959      1.77660010801923     -1.62851802023475
