13
Coordinates from ORCA-job run
  C   -0.15526292912324     -0.06586432327012     -0.30402620754162
  C   -0.27067852921254      0.16151273680302      1.11309934340421
  Cl  1.68117476006930     -0.41380398732171     -0.97095973647042
  H   -2.43004608028138      0.05037812244047      2.18364721328979
  H   -1.51852961365577      0.16132963082244      1.42325867505871
  H   -0.42132991401209      0.80872279392100     -0.89063254239181
  N   0.15503384997342      1.47825433270558      1.54238653600870
  H   1.08838970515524      1.38347317134983      1.93299776250615
  H   -0.45666678493086      1.72373578889271      2.32139464201872
  N   0.21464569347329     -0.91191815639874      1.97004774085632
  H   0.53895359235744     -1.69376576812828      1.41299369497516
  H   -0.59124669927164     -1.21700978098860      2.52503065086557
  H   -0.64853705054119     -0.97651456082759     -0.64376777257949
