16
Coordinates from ORCA-job run
  C   0.53868767437729     -0.04253635435176     -0.08281323756655
  H   1.66211909136337      1.67721760849972     -0.14520629780604
  Br  -1.77420584754111     -0.31045406007328      0.17660311055189
  F   2.60198380808280      0.02875908760848      0.15578285038671
  C   0.59109142994246      1.46359087142590     -0.11654438147859
  H   0.72457629798588     -0.51153932708061      0.86175421146590
  C   0.71621520594126     -0.78743332152002     -1.37517932479972
  H   0.03841409657899     -0.41761276418086     -2.14242393325444
  H   1.75319068071923     -0.63984525056029     -1.66808036665699
  H   0.52971954550854     -1.85017882556473     -1.21466682541529
  N   0.15717993734022      2.03006021621595      1.24888533999271
  O   -0.43285133427324      3.11233641590103      1.23894649603884
  O   0.49602769439468      1.43224618261198      2.26214182658414
  N   -0.10130447026931      2.05990812398283     -1.20316875842762
  H   0.01562784681269      3.06278747455721     -1.16819036492660
  H   -1.08884165696374      1.84300392252846     -1.12525034468836
