16
Coordinates from ORCA-job run
  C   0.44834255026001      0.00109640225853     -0.09970997527635
  H   1.69226884041099      1.65482987832231     -0.36155300480998
  Cl  -1.97994784928080     -0.13104181257756     -0.45795981967850
  Cl  2.49844992520209     -0.40355999415770      1.06081381564312
  C   0.63456612009320      1.50613691486407     -0.10901112269650
  H   0.06236195192014     -0.47646254732799      0.77752874863999
  C   0.77162113207074     -0.75187912017698     -1.35096995697613
  H   0.52637744412710     -1.80624206424255     -1.23486620901064
  H   0.19494062799067     -0.33372816058692     -2.17398816919085
  H   1.83450466734006     -0.65131902253372     -1.57466268845162
  N   0.31599597498086      2.03366473136229      1.21940531787324
  H   0.61879222636523      3.00263606227506      1.24718100543192
  H   0.89994218548394      1.53053490536907      1.88220697299550
  N   -0.10974770499516      2.14051563443444     -1.18099964436094
  H   0.10256996054011      3.13188649518855     -1.17354104086526
  H   -1.09771805250917      2.00492169752913     -0.99348422926701
