18
Coordinates from ORCA-job run
  C   -0.28967642103596      0.00510517142738     -0.35235480785528
  C   -0.29763436094870     -0.17763661663462      1.10491351242592
  F   1.07722872458457      0.30460872149112     -0.86219091800367
  H   -2.60298742221954      0.46229218559835      1.88502692832555
  H   -1.84097014162069      0.06278157534172      1.57365138127421
  C   -0.73158691836167     -1.20576600060958     -1.14127921617705
  H   -0.14181371455874     -2.06986068523368     -0.84148564191417
  H   -1.78462583414915     -1.41477612931632     -0.93047066513328
  H   -0.61267509197528     -0.99619775435547     -2.20713601712474
  N   0.21445276130429      0.96857796068538      1.84025193036829
  H   -0.55664587334202      1.57496141734434      2.12540636441234
  H   0.87190200095581      1.51746778356164      1.29126086136427
  N   0.29474655307725     -1.44033224384395      1.53017398820822
  H   -0.08049804751451     -1.64995353766379      2.45037257574640
  H   1.29800180534808     -1.30442656940511      1.67450760199699
  N   -1.03798998226830      1.18318585428068     -0.80132341717050
  H   -1.92063540865857      1.14747640067357     -0.29222105853775
  H   -0.54908262861685      1.98296246665836     -0.41191340220578
