15
Coordinates from ORCA-job run
  C   0.97162948195488     -0.01475497843571     -0.03710695414703
  H   1.61971819250756      1.90936561776789      0.58306340164602
  F   -1.45201243558730      0.43510700674121     -0.58249564090894
  Br  2.80134612411974     -0.11008781603846     -0.74643306331648
  C   0.69066353685710      1.49250369321396      0.17328885446417
  C   0.09205263887280     -0.76543242981184     -0.95755305490837
  N   -0.04455164904291     -1.68886739889824     -1.68468522432414
  N   0.94595069138055     -0.80811836366636      1.28977095443951
  O   0.00888998806992     -0.54731052952723      2.03402722252043
  O   1.78892538709888     -1.67429434768847      1.47658791045373
  C   -0.36608676593694      1.85051871458750      1.13898864444817
  N   -1.05068118848093      2.41536338008824      1.91089649863947
  N   0.46176523166097      2.06872778112723     -1.14291194682379
  H   0.45481613060857      3.07842012819124     -1.05022316553800
  H   -0.48535536408293      1.73636954234906     -1.35838443664476
