11
Coordinates from ORCA-job run
  C   -0.21780345511918      0.02359402676142     -0.30071647797065
  C   -0.17820594930815     -0.05525003680198      1.13396992757006
  Br  1.83420866974635      0.06664143156824     -1.26325856847525
  H   -2.64824344912236      0.35493582600669      1.30884160906444
  H   -1.45684485283992      0.03917175889183      1.33614883468403
  H   -0.53947551564231     -0.90078925117631     -0.78028684000069
  H   0.19898095106750      0.84428794954592      1.62697010054201
  H   0.25158411277219     -0.96708550073824      1.55279021711929
  N   -0.92175546418649      1.13345817282084     -0.84902238086852
  H   -0.56539227948748      1.97109745654944     -0.39697670600634
  H   -1.87536276788016      1.01084816657215     -0.45480971565837
