12
Coordinates from ORCA-job run
  C   0.49263514909392     -0.03709446053260     -0.01488768429006
  H   1.69642025209470      1.66426473747970     -0.00053970165839
  Cl  -1.53249045947088     -0.28450860131012     -0.04069404800998
  H   2.63602750441168     -0.23049508984300      0.04290377276731
  C   0.62398584140296      1.47742895124908     -0.00434255812138
  H   0.79015728617010     -0.50503650807211     -0.93839657217109
  H   0.75313299853581     -0.56037663369675      0.88796006677928
  C   0.07288161163562      2.05910144319671      1.23919946657756
  N   -0.32599913973229      2.61956803047915      2.19251107094396
  N   0.04937275753798      2.06917077589901     -1.21011152776316
  H   0.17524807603798      3.07382314134626     -1.17562222390969
  H   -0.94548187771759      1.87547421380467     -1.21981006114437
