13
Coordinates from ORCA-job run
  C   0.62585898342642     -0.04053816853676      0.02303134870344
  H   1.84460234605090      1.71400797418557      0.21868054237169
  Br  -1.92228751245065      0.23346545720613      0.01910237913910
  Cl  3.01193802733317     -0.47745695527004     -0.32731032214032
  C   0.80484758703532      1.46560447096136      0.01594195170488
  H   0.16448568623403      1.90433457263058      0.77978503988546
  H   0.51406673794321      1.87591315085989     -0.95012681133029
  C   0.45116084995330     -0.76103291355200     -1.21016411086854
  N   0.30360362517478     -1.35316312500292     -2.21905840610139
  C   0.69261642966284     -0.78483735967473      1.34194457346103
  H   1.52314889890159     -0.38522846276619      1.92307757818066
  H   -0.23504483893194     -0.66117713519988      1.89685315134876
  H   0.88139317966704     -1.84317150584101      1.16955308564553
