19
Coordinates from ORCA-job run
  C   -0.25480941174837     -0.01513233661246     -0.36617868724870
  C   -0.15614905817541      0.06301226973311      1.16429944798180
  Cl  1.49920393290512     -0.08313917720701     -1.01724142358494
  F   -3.00701606098271      0.34961728233545      0.56366625047270
  H   -1.22916407691957      0.13029615652294      1.40122866877705
  N   -0.91723756406631      1.12384488122353     -0.92031814775624
  H   -0.52697950025299      1.92932282156059     -0.43711359057205
  H   -1.87888709352425      0.99616108926683     -0.51433292427755
  N   0.45308624218463      1.34374463346064      1.54330067393317
  H   1.46300121971792      1.25884614341636      1.49684327681595
  H   0.19969536668069      1.55382781121853      2.50088247428473
  C   0.49349791440064     -1.16186325035464      1.83809273531034
  H   1.38220407447266     -0.86119213548833      2.40197635492228
  H   -0.19990517800018     -1.63751670196601      2.53826113090222
  H   0.81706786355840     -1.91783318697234      1.12095818725681
  C   -0.98324353608265     -1.25861935325625     -0.83083292107785
  H   -1.99017332889830     -1.14926247581311     -0.41046928202851
  H   -1.03174307434229     -1.24513032294138     -1.92117260017294
  H   -0.50691873092698     -2.18387414812649     -0.50388962393828
