15
Coordinates from ORCA-job run
  C   -0.27808317746522     -0.00999621966417      0.14460197056139
  C   -0.55693450977554     -0.33594817220009      1.52698145487488
  Cl  -0.19883699609458      0.40147584574366     -3.53565536137278
  F   -2.64148672330321      1.05703153231340      1.60755043582286
  H   -1.83702734617116      0.22636877168876      1.63169899009950
  H   -0.10987351295948      0.41262807983853      2.18908763936351
  N   -0.53574116878746      1.23531190380294     -0.29475154292905
  H   -0.54431717639457      1.34602933216848     -1.30637441319084
  H   -1.29269178688419      1.66171903911700      0.23027678319792
  N   -0.23459546894414     -1.72520896660341      1.84713090423966
  H   -0.97653818936402     -2.13063934316497      2.39964616582946
  H   0.61939466279738     -1.79100519601297      2.38790693465387
  N   0.21841687944798     -0.91546955429780     -0.68589018357248
  H   0.17124780562052     -0.74170312621324     -1.69469681629214
  H   0.27591670827768     -1.84186392651613     -0.29093296128574
