13
Coordinates from ORCA-job run
  C   0.62872269821176     -0.10223638880573     -0.00287948201427
  H   1.51862356767833      1.78555544523847      0.33406684308357
  Cl  -2.03033188138297     -0.19285913214154      0.56170994707806
  Cl  3.32771765697240      0.05315839775967     -0.11166070465550
  C   0.54826627118945      1.40571114483303      0.01406931602328
  H   -0.24186307946283      1.68786780867258      0.70932979101983
  N   0.49770138837071     -0.78952000306075     -1.09748783725842
  H   0.26777033803976     -0.32184032500509     -1.96211539288191
  H   0.47423615517796     -1.79566709688592     -1.06712200614837
  C   0.83872983655338     -0.79410386863172      1.23566818476076
  N   0.98941332449686     -1.37524127218864      2.24842360285584
  C   0.23469754897119      1.92810152879823     -1.30858370763170
  N   0.00306617518399      2.30113376141741     -2.39703855423114
