17
Coordinates from ORCA-job run
  C   -0.45151925615777      0.14709372364659     -0.07272127022957
  C   0.30463564466139      0.10532564798525      1.08165885967474
  F   0.67580414433296     -1.46707694416931     -1.18274247814519
  Br  -2.50339884573354      0.84024338008080      2.59791496643345
  H   -0.97516191641469      0.38761361797352      1.29628182418803
  H   -0.99226189818633     -0.75446521004586     -0.31177479684319
  C   -0.67520604667946      1.32328030576191     -0.95107470292378
  H   -0.08468585965663      2.19373541876353     -0.66747972271301
  H   -0.36497980923465      0.98297044777490     -1.94192197660685
  H   -1.73388044201547      1.59352639186107     -0.98126939150428
  N   0.70019929913456     -1.17399583865513      1.49221659206590
  H   0.65364757128867     -1.75572466257248      0.64371492764627
  H   0.22526558455599     -1.52205315338503      2.31368172447735
  C   1.03128965584792      1.27465175324828      1.68095682409862
  H   0.53992254517067      2.22466886421681      1.46889244404522
  H   1.06102582883247      1.14802556915938      2.76519803670255
  H   2.05717380025392      1.28517068835579      1.30345813963375
