19
Coordinates from ORCA-job run
  C   -0.11165819943091     -0.08071474292589     -0.32493803063707
  C   -0.08702334077361     -0.18961543174983      1.20607798947040
  F   1.18086633671789     -0.26788881586258     -0.83269858896114
  H   -2.93045092923553      1.13398101111292      1.24210427842694
  H   -1.13024928354268     -0.37691777577269      1.49678118456519
  N   -0.86603132608882     -1.28784219478667     -0.92237774213533
  O   -1.60667746399889     -1.10399802556093     -1.88281804256065
  O   -0.63817255154967     -2.39632772987081     -0.43516407153665
  C   -0.71323216894662      1.18067960218891     -0.85306488117726
  H   -0.82367630970007      1.13476818087729     -1.93575773500994
  H   -1.68678915920404      1.31666113789544     -0.34327252642078
  H   -0.05596586586527      2.00913668963905     -0.58738243018017
  C   0.28103703771541      1.14852641717104      1.83340000834360
  H   -0.56063684946155      1.83563296734483      1.72474262128040
  H   0.45292480534774      0.97057179300728      2.89673179818372
  H   1.19515661408305      1.57223677196071      1.40050435634223
  N   0.79314738508484     -1.23228749202978      1.73615817046225
  H   0.49301918563676     -2.12153513283741      1.35881606398125
  H   1.72636208321197     -1.06655722980091      1.37353757756300
