16
Coordinates from ORCA-job run
  C   0.48968336695740      0.04270098959227      0.00925941919184
  H   1.60224829133106      1.66807497482677     -0.64188307270130
  F   -1.31792062729154     -0.00702704141164     -0.28118620456334
  F   2.22164429211389     -0.09004217765628      0.51207332573785
  C   0.65537960163641      1.57036375710339     -0.09870268860910
  N   0.71881406279107     -0.70419557876195     -1.19601475785579
  H   -0.10747584416799     -1.26565064304499     -1.34462472581212
  H   1.53225284665828     -1.27980319250032     -1.02648729951818
  C   0.15663122541405     -0.61800775971228      1.27091903791573
  N   -0.07561189055559     -1.20026146489103      2.26502017115816
  N   0.70204625847639      2.12348128521430      1.24465933061981
  H   0.86583612542322      3.11882058211964      1.14993794844709
  H   1.50022412934947      1.69792246173091      1.70267339506898
  N   -0.34785688471919      2.29196877214066     -0.85445330510380
  H   -1.23212556371291      1.91155626108753     -0.53017804313032
  H   -0.26732938970398      1.96040877416299     -1.81058253084552
