16
Coordinates from ORCA-job run
  C   0.60741698538625      0.05036780380688      0.11079388264070
  H   1.75175374864510      1.80202581987071      0.03343959362198
  F   -1.15327905131432      0.00702956109747      0.54436506259070
  F   2.31516823023930     -0.17558683197050     -0.60713767554235
  C   0.68776264088912      1.56789582967277      0.00039922043129
  H   0.31921134533823     -0.55951835298040     -0.72870846031234
  N   1.01345523984921     -0.52015851441315      1.36724426832841
  H   1.83819625010184     -1.06083523738125      1.14488454347507
  H   0.25477697088342     -1.11868915054542      1.66186131134769
  N   0.03493019013209      2.27502976911416      1.10674981347391
  H   0.52112544217021      1.95861838646250      1.94164383717888
  H   -0.87206261556633      1.81769409633502      1.16870654816624
  C   0.11044419247109      2.01635664780602     -1.32947451024413
  H   0.65888093107308      1.53654678878814     -2.14409404654487
  H   -0.94042526615350      1.72003844623967     -1.38073638891245
  H   0.18129476585517      3.10304493809740     -1.43012699969876
