19
Coordinates from ORCA-job run
  C   -0.49768981272150     -0.26189075894200     -0.22981544365790
  C   0.16456524409749     -0.29992244570991      0.99187324693374
  F   1.46196424047333      2.57625036630580     -0.38842661279114
  Cl  -2.57472058461525     -0.05520941764618      2.20307804517131
  H   -1.14783636045073     -0.07895723806060      1.35416775161371
  N   -1.01509456872286     -1.40226380764308     -0.80461130950892
  H   -1.90493601408347     -1.25376489387997     -1.25863329741839
  H   -1.01635262917902     -2.22065437333253     -0.21610126298455
  C   -0.76818049765552      1.01796971457466     -0.94364539844672
  H   0.14056879690121      1.65829687377126     -0.98348497307742
  H   -1.17026396927466      0.81540171307772     -1.94025778392514
  H   -1.50937019875192      1.58500600435718     -0.36703047640328
  N   1.01623576995167      0.74033896029114      1.39709559501988
  H   0.74568024998942      1.10470891317030      2.30226274008323
  H   1.19848877198932      1.51761984179216      0.69438034752266
  C   0.40067080948879     -1.61400856667223      1.71076129547685
  H   -0.46484860391055     -2.28221790078661      1.69944492876129
  H   1.27125533161854     -2.12252311955425      1.28508660776746
  H   0.61723402485574     -1.39412986511287      2.75753599986330
