13
Coordinates from ORCA-job run
  C   -0.42450238364467     -0.18360975171556      0.09196583586054
  C   -0.90173473270758     -0.54071448177508      1.40273964715936
  Br  0.80580048339242      0.68155973323058     -3.51133119563137
  F   -2.63389062365472      1.27661270276723      1.41803791055918
  H   -2.02789134203697      0.27964012535538      1.45891322692724
  H   -0.36136437843243     -0.01167508115692      2.18759119037626
  H   -0.94466600216722     -1.61567726014549      1.57588176354089
  N   -0.44402018613413      1.10613089612419     -0.26513844992950
  H   -0.20740539526134      1.33591305578326     -1.22660473989624
  H   -1.15588535930314      1.63858911535241      0.22728078871398
  N   -0.03655462478360     -1.08430954212069     -0.81787971940952
  H   0.27105024298925     -0.76150871097253     -1.74000177201671
  H   0.25557430174413     -1.98806080072678     -0.49518448625410
