12
Coordinates from ORCA-job run
  C   -0.31878642938775      0.12973999781414     -0.26189999968960
  C   -0.08808060601067      0.18450698436964      1.09444760374067
  F   1.39533504665070     -1.03332206768798     -0.88568024634319
  Br  -2.96728695453185     -0.26999692873129      2.26159098931348
  H   -1.62099154242328      0.07894147651956      1.47759934809602
  H   -0.59074337641173     -0.80244545538445     -0.73058128758998
  H   0.10973264255600      1.15202565882171      1.56139199991653
  C   -0.48662787584055      1.32973789555692     -1.01778655013852
  N   -0.63481682004794      2.32374390408433     -1.63327685322361
  N   0.49786124244196     -0.96688760047709      1.67748304613534
  H   0.92191918280448     -1.44976707301837      0.87414991459556
  H   -0.14767450979935     -1.54044679186714      2.20548203518728
