15
Coordinates from ORCA-job run
  C   -0.26071118432525      0.04565372430521     -0.23363143303498
  C   -0.05288349368465      0.06749690023899      1.29561192212540
  F   0.98714043844122     -0.28583574434545     -0.79585775701211
  H   -2.76955637438880      0.21086022492779      0.47835915733334
  H   -1.07424990612894      0.25915213986589      1.66405675252961
  C   -1.18126044942100     -1.08845873783113     -0.53323642718862
  N   -1.41997092625229     -2.18766321565828     -0.90065902890776
  N   -0.74476423919872      1.24321236413812     -0.81428210312083
  H   -0.26948422754390      2.03798219039295     -0.39827889455461
  H   -1.73654927445794      1.23968798780613     -0.50902492803404
  N   0.46140637635126     -1.16831452459603      1.87288886963784
  H   1.19695306931327     -1.51644357953176      1.26723307856007
  H   -0.29159167907689     -1.84741312840077      1.84363660198547
  C   0.81671493603431      1.19265639986629      1.65266576009912
  N   1.49663693433830      2.11285699882205      1.92050842958207
