16
Coordinates from ORCA-job run
  C   0.57871571642520     -0.01844980930663     -0.01996709520613
  H   1.84644339305446      1.67597587026694     -0.11676406490047
  Br  -1.88464235616071      0.08879864240812     -0.14960907888214
  Cl  2.94449625496344     -0.47777453255554      0.15614237343653
  C   0.77738909675902      1.51202513665385     -0.00754005841408
  N   0.64268035210612     -0.84204936984478     -1.27800127350001
  O   0.97474675318578     -0.27272668397836     -2.30474878817953
  O   0.34886488362921     -2.02435253361123     -1.16131396094995
  C   0.47283949738597     -0.77172891980080      1.19622570548380
  N   0.33519695156089     -1.38045299472587      2.19594760332463
  N   0.42642961395997      1.93680293961369      1.34211124064402
  H   -0.57856026338226      1.86592952237760      1.46174106760278
  H   0.70364127019546      2.90342825427634      1.46152566209509
  N   0.14899323638080      2.18416048461224     -1.12679565643637
  H   0.53718218005336      3.11602833652250     -1.19846822649706
  H   -0.85194658011670      2.23503565709192     -0.99077544962111
