15
Coordinates from ORCA-job run
  C   -0.21363342924332      0.14319426235459     -0.28639702837558
  C   -0.08936542713805      0.14768985558773      1.06653666853842
  F   1.88753308560305     -0.61471715333903     -1.01783023312292
  Br  -3.13093325753564     -0.47787274579730      1.69464612902341
  H   -1.65093131676593     -0.18191693167818      1.10355299244251
  H   -0.00983165715679     -0.74802880907138     -0.86036470697640
  H   -0.52554562177083      1.03921148628845     -0.82148399480023
  C   0.58369871691364     -1.06365534301647      1.67431359223311
  H   1.41505973560988     -1.28278160848557      0.99389014320313
  H   0.94149097539703     -0.86060841081304      2.68820074507289
  H   -0.09104697158359     -1.92445700495983      1.72324554981138
  C   -0.08834128807205      1.42910209328985      1.85734118099817
  H   -0.62021605815465      2.22575839213349      1.32972021554543
  H   -0.56343968394469      1.29078555311950      2.83398244349553
  H   0.94466219784194      1.75462636438719      2.02389630291117
