16
Coordinates from ORCA-job run
  C   1.18695269057399     -0.07744199059608      0.15193835913610
  H   1.98087845274907      1.93459338935839      0.10800228156136
  F   -1.52258791204617      0.49240928558786      0.00284831560918
  Br  3.14662689891560     -0.50874270569683      0.08653181742408
  C   0.99902863953971      1.45478290239410      0.12593457377648
  H   0.48263670595335      1.67364234633978     -0.80829507626520
  N   0.69187772102438     -0.69480199180893     -1.15789124336292
  O   0.84418043880339     -0.04241036443323     -2.18444049406289
  O   0.25929630478026     -1.83905039871555     -1.11435328314883
  C   0.58109006468522     -0.80363885905913      1.31980712076445
  H   0.84072247386572     -1.86054865958054      1.29943956922969
  H   0.92792503166150     -0.33035302105984      2.23693987274017
  H   -0.49533684830419     -0.64642193206278      1.19025793166342
  N   0.24187149792135      1.89400847098060      1.29671408001882
  H   -0.69605760868604      1.51896423020074      1.04770637694595
  H   0.19653544856283      2.90732929815145      1.24699979797016
