13
Coordinates from ORCA-job run
  C   -0.20482434442111      0.02877651454023     -0.32859262699167
  C   -0.12010771917135      0.01561653876861      1.17657147351872
  Cl  1.46936177803063     -0.15516661816463     -1.10640695079363
  H   -2.56932428317525     -0.56632331028619      1.41592748896749
  H   -1.32382315173808     -0.12466102402789      1.46378323537600
  H   0.32346143624575     -0.92903701083346      1.50518500696430
  N   -1.04632845227459     -1.02608301384025     -0.84089137243732
  H   -1.88396611859055     -0.99294661046595     -0.22408106684058
  H   -0.58184460664525     -1.90383168334043     -0.62277461891643
  C   0.53626391735135      1.14096613098531      1.78501772014345
  N   1.04490365246403      2.06815028774581      2.30481881786629
  C   -0.71505647239577      1.32143147786351     -0.81110295113080
  N   -1.10799563567982      2.36064832105533     -1.19226415572583
