14
Coordinates from ORCA-job run
  C   0.39033706593347     -0.01052680460288      0.02970359164388
  H   1.73568535266300      1.68397195544693      0.24668662976878
  F   -1.19626236067668      0.11335120687415      0.04172428311843
  H   2.32605791652681     -0.34488403060797     -0.02694955564563
  C   0.69131550182157      1.48402529490310      0.03606093937449
  H   0.53761897836389     -0.47695937279226     -0.93148173445276
  C   0.71987089489932     -0.84842893028092      1.15483621058418
  N   0.69029628413900     -1.59753780326087      2.07066481089798
  N   -0.05254913568475      2.11005345994252      1.24072828497422
  O   -0.91104236818234      2.96408700863312      1.02252135436498
  O   0.31559957063000      1.75241200029172      2.35466264047571
  N   0.26721037351433      2.04822100461257     -1.19755925963313
  H   0.32610755036357      3.05690948971808     -1.15599268399236
  H   -0.70606562431118      1.79508552112269     -1.32033551147876
