17
Coordinates from ORCA-job run
  C   -0.12335643481138      0.02327464767899     -0.35649909763737
  C   -0.10942221244400      0.11722819033597      1.09936128267663
  F   1.22966227744442     -0.15879898370248     -0.97429547358514
  H   -2.40158894316506     -0.34610251517504      1.86342437312361
  H   -1.54389947549456      0.00749382525705      1.51009824213133
  H   -0.45092889115537      0.97167263832454     -0.80204013813052
  C   0.54559478091346      1.35488492298732      1.66314325114486
  H   0.23403100694537      2.25456279331135      1.11414376690681
  H   0.25164141893760      1.48504515362639      2.71312569295819
  H   1.64876753453055      1.31893579457594      1.64026375677720
  N   0.31451718227617     -1.08195127361890      1.80755705081681
  H   0.94817738661850     -1.64217772901106      1.24609183647657
  H   -0.51345355957293     -1.64704007743122      2.01511575452403
  C   -0.93338764914172     -1.13225080658377     -0.90199381965790
  H   -0.48443345263291     -2.07772852512372     -0.59119627641403
  H   -1.94967080599766     -1.09127742169972     -0.49570797179561
  H   -0.96383016325049     -1.11141063375167     -1.99534223031546
