18
Coordinates from ORCA-job run
  C   -0.23184911221231     -0.02668968218492     -0.30308822696479
  C   -0.05237607980635     -0.09049747589663      1.13203612440803
  Br  1.70842781610290      0.18718549336005     -1.36509231196265
  F   -2.45232527253718      0.62352784457079      1.53681414109920
  H   -1.33030964451756      0.07928366471489      1.41911516113747
  C   -0.68275408653973     -1.29062561889155     -0.89009744790280
  N   -1.07391223038264     -2.31321618177348     -1.32103084212196
  N   -1.00501176106460      1.07099592473392     -0.84586256493659
  H   -0.43406474736586      1.90635551272122     -0.80528389629670
  H   -1.77154385139154      1.17300464403121     -0.16860973745001
  C   0.51468097548370      1.17456832041391      1.74717321107946
  H   -0.09244774252074      2.04363117301524      1.49079718025542
  H   0.49812620225713      1.08831968540632      2.83786675252400
  H   1.55086749488421      1.34669876261709      1.42376574644643
  C   0.60043241910944     -1.34629316065252      1.66441102917654
  H   0.12110720583324     -2.25301781283991      1.28735590877879
  H   1.66372411118405     -1.38655802995287      1.38490428676901
  H   0.53778830348385     -1.36836306339278      2.75737548596115
