13
Coordinates from ORCA-job run
  C   -0.54100472677789      0.00116842317156     -0.16758090234385
  C   -0.16553411289470      0.13266319808677      1.15230679836828
  Br  1.49650726012305     -0.65389168275845     -1.67081942115570
  Br  -2.83030343689978     -0.06811494474467      2.72206751167120
  H   -1.57977732673509      0.10944325933858      1.68684448640593
  H   -0.98160791573400     -0.90078457286154     -0.56374449986059
  H   0.10616794358333      1.12863418229321      1.49784019735889
  N   0.46924478672840     -0.94987314338099      1.79473229092318
  H   0.53479639538289     -1.75887454793678      1.19172310466242
  H   0.04937364009098     -1.18173828367711      2.68566148352506
  N   -1.01809130341262      1.18705081133216     -0.85412330796162
  O   -0.60970390374605      2.28976819009124     -0.48469186348776
  O   -1.83717729970854      1.00540911104603     -1.75892587810545
