17
Coordinates from ORCA-job run
  C   0.59331087273964     -0.05052448244333     -0.04587548170099
  H   1.63483908864222      1.61268283019414     -0.65338787496649
  F   -1.15814535404238     -0.27297485816213     -0.64129826268040
  F   2.20743031092763     -0.06784757154238      0.71500518884314
  C   0.65582067871271      1.47138769425455     -0.17573676351973
  N   1.04949990828994     -0.82477935132203     -1.16626433448851
  H   0.26832078180270     -1.40577238820041     -1.43499760854666
  H   1.83177239112885     -1.37508715576615     -0.83988418697388
  C   0.06652025470927     -0.68561943109084      1.16218897435804
  N   -0.29276263594347     -1.26275303911869      2.12097200206191
  N   0.61251201867070      2.05521730197556      1.16747687971064
  H   0.77453391726727      3.05343183612613      1.08526437354782
  H   1.39879927775636      1.65071794946017      1.66497751545058
  C   -0.39653852202768      2.12126031112361     -1.05297701002924
  H   -0.42168841140029      1.64539086685785     -2.03223892047329
  H   -1.37712171233056      2.02284877659174     -0.59592051137748
  H   -0.14328286490294      3.18394071106224     -1.17790397921546
