16
Coordinates from ORCA-job run
  C   0.84863137051180      0.03825868247625     -0.18002738908869
  H   1.72252802970285      1.98786156672724      0.07964131261179
  F   -0.37265405031947     -0.93991244139464      1.98441816226117
  Br  2.73434437210267     -0.51967011899648      0.10959121359788
  C   0.72762981422677      1.57797944322674     -0.13049318660763
  H   0.06230449279893     -0.63445751060049      1.14353681688465
  C   0.41076187698513     -0.55123184700634     -1.39691101905373
  N   -0.04144705617918     -1.04907897053689     -2.37258088402957
  C   -0.19219030027724      1.99572689415965      1.02052528150561
  H   -1.19908525427114      1.60019513485592      0.85986494519443
  H   0.16182547837542      1.58372844526083      1.96585094148304
  H   -0.25246253055831      3.08899800496835      1.10247624584408
  C   0.25107223793012      2.20356000208666     -1.44365579664083
  H   0.92517273099771      1.95568816146660     -2.26733297274185
  H   -0.74334980758254      1.83459758803327     -1.71139341480254
  H   0.19597859555646      3.29484696527332     -1.35219025641782
