10
Coordinates from ORCA-job run
  C   0.61983777937270     -0.01868062689296      0.03999133971743
  H   1.60976756034499      1.80352854774932      0.56826424232526
  Cl  -1.72514824191323     -0.15022435659319      0.02042748116477
  Cl  2.90220940703336     -0.33734384087122     -0.42578766457224
  C   0.70793511102111      1.48798329533701      0.04684578747838
  H   0.51105303230547     -0.59548510162997     -0.85524547556763
  H   -0.16681388308492      1.91734152358271      0.53111507231443
  H   0.76142493809222      1.84420155649604     -0.98129553939298
  C   0.70839938657553     -0.71367067190734      1.29457319746763
  N   0.78884491025277     -1.22821032527041      2.35006155906497
