14
Coordinates from ORCA-job run
  C   0.36299396357592      0.00051407606892     -0.03833364806223
  H   1.34061558338685      1.77521416931982     -0.61895413215081
  F   -1.40825280809420     -0.02585014729011     -0.75285367379050
  F   1.92852894435709     -0.17393435221389      0.85850365194642
  C   0.44915404203462      1.50489755106476     -0.02891392844359
  H   -0.11723281177846     -0.49190971680438      0.78487093190232
  H   -0.44216881791119      1.89051582647498     -0.51843791283461
  C   0.83054184414892     -0.74969342221451     -1.25513444372059
  H   0.44925028589673     -1.77100804429516     -1.22952424861949
  H   0.41601192848902     -0.27340738389665     -2.14353158450072
  H   1.92002546138983     -0.76301237277014     -1.29130338693396
  N   0.52847376264663      2.00099814972957      1.35183961331660
  H   0.79700610863333      2.97921241302054      1.32924364938772
  H   1.30595251322490      1.47161325380626      1.73497911250343
