16
Coordinates from ORCA-job run
  C   0.37273819090102     -0.06298238290691     -0.05047618880651
  H   1.57639581935780      1.69577320222857     -0.38053406848040
  Cl  -1.71802253600416     -0.17217386761562     -0.24295963614909
  H   2.09000583163758     -0.22546012992310      0.67731885427938
  C   0.55887148223676      1.45605696477191     -0.06503444016332
  H   -0.12184665122412      1.84569275422314     -0.82786580522155
  C   0.75073969258600     -0.77663857309808     -1.34249435735489
  H   0.36211060158747     -1.79664814455063     -1.32405650679346
  H   0.28778485531793     -0.24988525663693     -2.17947535554209
  H   1.83160024871719     -0.79766642819490     -1.47861076074007
  C   0.67980089792044     -0.75491807159742      1.18595713559518
  N   0.43727194963395     -1.38217610012320      2.17209060357807
  C   0.26000195114930      2.09321862459158      1.28335489981494
  H   -0.73977583765143      1.81127421168193      1.61707748669623
  H   0.97655585331088      1.74663392770763      2.03094316841946
  H   0.31720765052341      3.18517926944203      1.21980497086810
