15
Coordinates from ORCA-job run
  C   -0.25040150212515     -0.07806610440960     -0.27507575044808
  C   -0.09734320932631     -0.04013658931581      1.26305102837295
  Cl  1.42719595898778     -0.14794426762072     -1.02204191051093
  F   -2.50379025112154      0.19616041669988      0.43346863359918
  H   -1.16701492507295     -0.07691260268404      1.53737443231397
  C   -0.95563458912223     -1.28040802246777     -0.71748040392122
  N   -1.33666450863004     -2.30711807536642     -1.14502083114571
  C   -0.89017021783301      1.14560519557398     -0.76793901345989
  N   -1.06626319913725      2.19117193841220     -1.28166462743170
  C   0.57169900497260      1.25568092619966      1.75952681244738
  H   -0.11515716150845      1.79098769766241      2.41648696761334
  H   1.49472006061713      1.05059975073489      2.30401084370740
  H   0.81457750113322      1.91728067153886      0.92678441116518
  C   0.59785694454140     -1.22826928186678      1.74155077781386
  N   1.15709009362482     -2.15911165309075      2.19145862988427
