16
Coordinates from ORCA-job run
  C   -0.36001923054577      0.05044909971626      0.08255449841816
  C   -0.52673397928830      0.08153408852594      1.51663571615419
  Cl  0.04719669556135      0.06776061953921     -3.60897321485602
  H   -2.47421954679462     -1.39920992438283      1.38777764998553
  H   -1.67581211634254     -0.44389456984497      1.56993144291176
  H   -0.48959174187279      1.09235526966137      1.92786356762998
  N   -0.61256275767180     -1.12077570850147     -0.50602972350906
  H   -1.33458130458110     -1.65245328048683      0.01565390432532
  H   -0.63501273673043     -1.12252543544080     -1.52389351117753
  C   0.26643641524897     -0.95827726013550      2.29742416273053
  H   1.29718159404582     -1.07458308835121      1.94947698865258
  H   0.28874066096632     -0.69087126860541      3.35836643967888
  H   -0.23878527525313     -1.92831452871391      2.21608649892360
  N   -0.12030317505477      1.13821438016659     -0.66121658553125
  H   0.34374191048297      1.91260584984954     -0.22168156729205
  H   -0.04197541217017      1.01871575700402     -1.67988626704461
