17
Coordinates from ORCA-job run
  C   -0.77979643812411      0.01293040415093     -0.46278376518375
  C   -0.15956153467186     -0.04807085153398      0.84983316356250
  Cl  3.48598783615442     -0.78537975018068      1.89722813999225
  H   -2.26785753942806      0.90407342989246      1.15805290080789
  H   -1.39631627036789      0.23279829860473      1.32515684800728
  C   -1.23620199834244     -1.24702360280909     -0.99348185207753
  N   -1.55768829498365     -2.29451958493771     -1.42699312514425
  N   -1.48931067778890      1.09026371128198     -0.87137693480834
  H   -0.96388062828679      1.92654062694896     -0.61597272232528
  H   -2.31812735694648      1.16555266752936      0.21934173078250
  C   0.58291916998980      1.16705827302213      1.36938469669284
  H   0.69006682216103      1.07881048383109      2.45080554672038
  H   1.59126901314048      1.16977993659570      0.95241863512066
  H   0.06561248538096      2.10026439671361      1.14021007471905
  N   0.33302804674183     -1.23116640340786      1.39159830198404
  H   0.13030239628901     -2.05812989166839      0.84716411984257
  H   1.33006496908264     -1.17255214403327      1.63804424130715
