12
Coordinates from ORCA-job run
  C   -0.10241975257962     -0.01790269616003     -0.38311610755486
  C   -0.13769564755095      0.06188019772763      1.11597041830263
  F   1.21179388063390     -0.08474788447671     -0.88862887514614
  H   -2.61964857561021     -0.19553751594225      1.18846227696337
  H   -1.44159142468467      0.01408915395061      1.29039874968376
  H   -0.54517508351968      0.88811971613864     -0.81022502036740
  H   0.23287633970745     -0.86239212497883      1.57184847201876
  N   -0.82521211387214     -1.15592255233966     -0.90216607122749
  H   -1.76752118820627     -1.05657474815355     -0.51010978399932
  H   -0.43425459030076     -1.97927470405848     -0.45070907400044
  C   0.48315002180550      1.22038107344202      1.68572922596267
  N   0.94176813417745      2.19212208485061      2.17491578936445
