12
Coordinates from ORCA-job run
  C   -0.50813644698463      0.20533041029816     -0.35367017198350
  C   0.31101945552226      0.15273858662168      0.91744822560876
  Cl  -0.15070271627750     -1.24503760475416     -1.36424143375323
  H   -1.90064870162428     -0.22078688589012      1.73543765787694
  H   0.30224702175400     -0.85118019163741      1.32866509113933
  H   -1.54295309564295      0.09611148422899      0.03396950213647
  H   1.33035619063994      0.52884314928343      0.77129842010446
  C   -0.31240845304979      1.38930621503831     -1.17575434522636
  N   -0.16586249985209      2.29706719025517     -1.90823209574123
  N   -0.32146004305443      1.03274611380542      1.94068591789700
  O   0.10744308305672      0.88621161773709      3.10125985973210
  O   -0.72596379448719      2.12693991501343      1.48398337220928
