16
Coordinates from ORCA-job run
  C   1.16339260054049     -0.19492665786324     -0.12755192906264
  H   1.24853080079760      1.94158865055776      0.21653217530961
  Cl  -2.70790839583073      2.31035882254766      0.94109152867809
  Br  3.29426832644119      0.15826938918378      0.04120215744625
  C   0.48740046270724      1.19338823208974     -0.01002390117205
  H   -0.19739595800337      1.15449391972417      0.84314583124347
  C   1.05817054109206     -0.86948728987284     -1.47409403423131
  H   0.00116088295042     -1.05701789711360     -1.66733911429979
  H   1.43742983853587     -0.22334450452249     -2.26200960318095
  H   1.61744351564456     -1.80902146767271     -1.47296203888092
  N   0.76318490848913     -1.03861655569752      0.90200633375751
  H   0.73382027650724     -0.59320549842373      1.80833615766266
  H   1.25766289463601     -1.91866919860777      0.93430466024735
  N   -0.29950015063694      1.52634020606860     -1.18900921172984
  H   0.08458553377555      2.34886423864555     -1.63361233558941
  H   -1.22945607764630      1.77322561095664     -0.84838667619804
