16
Coordinates from ORCA-job run
  C   -0.22508964077445     -0.00437311640562     -0.26460239040440
  C   -0.19476451042928     -0.11073682005290      1.19637429742791
  F   1.10387012066465      0.25112337811909     -0.87161805794971
  H   -2.43229387276616      0.61932824023022      1.77200205811375
  H   -1.59598592696561      0.09233746634335      1.53547137572855
  C   -0.63530627174711     -1.28909467752821     -0.87719572842146
  N   -0.97313388358105     -2.31047861152221     -1.35046905387400
  N   0.27046803993997      1.09275693873437      1.83748026496610
  H   -0.54303361715560      1.64908816992339      2.11825328119016
  H   0.85507677969496      1.65368295897490      1.22865889155270
  N   0.37730590743865     -1.32405981559639      1.75259050579384
  H   1.25816299590675     -1.56411600373393      1.30239064914662
  H   -0.25948999226946     -2.09907407512874      1.61281866860614
  N   -1.05107036924077      1.06697659476438     -0.79064433620188
  H   -0.47391620898192      1.89904991347514     -0.77520163978057
  H   -1.79577954973356      1.20999945940318     -0.10347878589377
