11
Coordinates from ORCA-job run
  C   -0.18490280739193      0.03200216397272     -0.25958185008779
  C   -0.11293831505628      0.15945435858787      1.17022392693750
  Cl  1.55060539896375     -0.33522278177143     -1.20949921974602
  F   -2.54568035000783     -0.38304235847679      1.53020230401456
  H   -1.46315234464322      0.08964268040684      1.38611676843537
  H   -0.49831473405085      0.93608059120002     -0.77962025827649
  H   0.38313029753308      1.07433476841313      1.50705945664344
  N   0.32610000774441     -1.01381012191595      1.92178441468288
  H   1.05135267563718     -1.50268137596659      1.40444941874573
  H   -0.47697793079980     -1.62820517863402      1.99718155851158
  H   -0.74478189792851     -0.84183274581580     -0.58487651986076
