13
Coordinates from ORCA-job run
  C   0.50999922027994     -0.09319517207057      0.05448159828358
  H   1.65333142335990      1.69378925343008      0.38027671661809
  F   -1.12165905603228     -0.14388358628099      0.34527246189062
  H   2.27283075983953     -0.09352150977283     -0.54971483739090
  C   0.62739290680978      1.43969508295937      0.12399489931253
  H   0.40619220490335     -0.55262274521825     -0.91227379798215
  N   0.90070370148840     -0.78717651551584      1.25024478531724
  H   1.75117963116398     -1.29185244178897      1.06204756528784
  H   0.13589367533821     -1.40543658113031      1.48788306098299
  C   -0.25142983965816      2.03152761582231      1.15091543136081
  N   -0.84194519770472      2.59231386659864      1.99668503194936
  C   0.32272859550597      2.03044000487458     -1.18217080264351
  N   0.08033197470608      2.50960272809275     -2.22592211298649
