21
Coordinates from ORCA-job run
  C   -0.22917374275188      0.00826857926660     -0.36531561282704
  C   -0.17440570754454      0.02838507498275      1.10191182006577
  Br  1.78347473212249     -0.01111300216851     -1.25446086706348
  H   -2.74839276727116      0.04080510989898      1.50730094578084
  H   -1.36582007913127      0.02827082010323      1.32813958099497
  C   -0.88243371887553     -1.23618628731741     -0.91473188083804
  H   -0.32626226970786     -2.14224718688115     -0.67717735141627
  H   -1.87609224565907     -1.28334634701700     -0.43786174598177
  H   -0.99581155259755     -1.17599789921065     -1.99959469834810
  C   0.37863479551657      1.30074024232718      1.71955246571556
  H   -0.24618610415211      2.16732529123599      1.48832152310927
  H   0.38907028453629      1.20465322038302      2.81021470807298
  H   1.40253465705164      1.50106520446255      1.37918244959744
  C   0.39445694026203     -1.21507763598489      1.76074558970474
  H   1.44765243642237     -1.36579739823833      1.49116474545187
  H   0.32571832091673     -1.11585818120515      2.84910067916375
  H   -0.16654683394532     -2.11318619837437      1.49158581475849
  C   -0.87107519409258      1.24628105889931     -0.94199695775419
  H   -0.98497106943973      1.16457961154133     -2.02541521340592
  H   -1.86424721308102      1.31286458189900     -0.46630791459106
  H   -0.30571366857845      2.15126134139749     -0.72217808018977
