14
Coordinates from ORCA-job run
  C   0.50307024474595     -0.06462731578718      0.04875486266389
  H   1.68825452924296      1.65748848818462      0.17589959597844
  Br  -1.72566465629169     -0.29897017770497     -0.08976421782715
  H   2.58879917984958     -0.23428722215130     -0.33654381119433
  C   0.62289699971267      1.45462607764719      0.07173870394994
  H   0.73475242225309     -0.52466256207200     -0.89873186853338
  N   0.73310051318291     -0.71116832284336      1.31807778681023
  H   1.70793907884417     -0.98378102359655      1.28001852998785
  H   0.14677974307400     -1.53556635291126      1.37320697093997
  C   -0.04182243072477      2.03165990268364      1.26208957104254
  N   -0.51779454498873      2.64483253203360      2.14521164040347
  N   0.17360058437957      2.04288393777246     -1.18479787627533
  H   0.34794126516595      3.04069024812813     -1.16172440580382
  H   -0.82655292844567      1.89663179061697     -1.26384548214231
