14
Coordinates from ORCA-job run
  C   0.87533979595857     -0.11349674854223      0.01967656784170
  H   1.65854653034592      1.83945099559826      0.50444573583764
  F   -1.22961159141043     -0.00992443383296      0.00701653878605
  Cl  2.95889000528800      0.01690751294616     -0.73343063361959
  C   0.72554787401067      1.39435883283043      0.14772252138615
  H   0.54974917610390     -0.54610605837392     -0.90386830761843
  N   0.91979693750864     -0.91228740686804      1.12143920007896
  H   0.20395139061157     -1.61591075092874      1.01834938635410
  H   0.76952196243751     -0.38636222216210      1.96993937253930
  N   -0.29648244853195      1.82516905487713      1.18200434966581
  O   -1.12882618367746      2.66191754000955      0.87908018633656
  O   -0.09590346312889      1.40805770011057      2.32252131599700
  C   0.37528493979834      1.96598626175864     -1.14525402155490
  N   0.16002507468559      2.45313972257727     -2.19047221203035
