17
Coordinates from ORCA-job run
  C   -0.44117776143990      0.02195272507911     -0.21093950844759
  C   -0.03878520329518      0.05047275490064      1.10208604003921
  Cl  1.68402975396006     -0.26158460510792     -1.64029261678679
  Cl  -2.69881986622881     -0.41220685677678      2.29453595439020
  H   -1.40070088790445     -0.13248512983917      1.45471801467315
  H   -0.65910762827047     -0.95882083192673     -0.61932547522506
  C   0.31167035838928      1.33884772249769      1.79730593683049
  H   -0.36052452972488      2.15526086429030      1.52502142524803
  H   0.25760646671449      1.19127325203004      2.87799000493841
  H   1.33913589940090      1.61073616222321      1.53481201406093
  N   0.63193688868864     -1.10139233745420      1.64000654577723
  H   1.02959599575130     -1.63100205332516      0.87216891598505
  H   -0.00204229427857     -1.68177021802106      2.17756152686841
  C   -0.98988026175740      1.20540099459302     -0.93687223543651
  H   -1.96145028396488      1.49128963265286     -0.51155657644454
  H   -0.30805942248368      2.05266230638127     -0.86326209918210
  H   -1.11684722355645      0.97006561780288     -1.99200786728852
