12
Coordinates from ORCA-job run
  C   0.58721779373481     -0.01811880041385      0.06136549326214
  H   1.76104215849734      1.71345075224657      0.46003739985746
  Cl  -1.82939690059136      0.04973551112129     -0.00334515780295
  Cl  2.84106778661196     -0.53628316151630     -0.64041621225064
  C   0.77723611833213      1.47021381197929      0.05798719670127
  H   0.39665699988167     -0.54869272130031     -0.84764146889188
  H   0.00866258185450      1.94026396798103      0.67186486638631
  H   0.70715938883861      1.86319934300352     -0.95516005987103
  C   0.67416147558094     -0.74316930087253      1.37212401015506
  H   1.65725480657656     -0.58085305480072      1.81477333014098
  H   -0.09357744706043     -0.36826768278117      2.04928737219200
  H   0.52561523774328     -1.81252866464682      1.23044323012127
