11
Coordinates from ORCA-job run
  C   -0.30804980095939     -0.10751509760512     -0.25483977637131
  C   -0.06338367896093     -0.19496954051953      1.08731629260877
  F   1.51445614610092      1.16625127049967     -0.80293398925412
  Br  -3.03292807747033      0.17763966360719      1.99093303613727
  H   -1.46428893299048     -0.06258907923232      1.20772671370286
  H   -0.52423186745065     -0.99654809521111     -0.84454652321274
  H   -0.42849391664198      0.85708041676761     -0.71583777834916
  H   0.05424062370185     -1.17692943152943      1.55008484911378
  N   0.57225420292696      0.90769150625472      1.71891110779772
  H   -0.08057282684474      1.49124382943422      2.22712779812879
  H   1.02397812858875      1.39327455753411      0.92639826969814
