16
Coordinates from ORCA-job run
  C   -0.04187350400940      0.03002987278012     -0.38101310569297
  C   -0.29830031439592      0.13340086258973      1.07675916312475
  Cl  1.71060444075222     -0.33901463795778     -0.85479032591860
  H   -2.35682521844323      0.05585040256362      2.39584294530825
  H   -1.46436168952176      0.11606792766277      1.31364208179627
  N   -0.88058606528129     -1.12778302885518     -0.94339226862014
  O   -1.92691861488264     -0.82224801721743     -1.50574380150642
  O   -0.49356697166669     -2.26787467601968     -0.71596568308002
  N   0.10589874586560      1.42735430094244      1.56414306564265
  H   0.99629560861470      1.30628698926531      2.03630357981382
  H   -0.59110327034378      1.66912038910242      2.27194928825894
  N   0.25800375440716     -0.95629342712395      1.86217886781169
  H   0.30784675783336     -1.80523967942538      1.30806866451191
  H   -0.46910029176195     -1.10899597280086      2.57220487292555
  C   -0.40775129792270      1.24663630967578     -1.09346888995968
  N   -0.67083206924368      2.20824238481805     -1.71590845441601
