16
Coordinates from ORCA-job run
  C   -0.08964460699930      0.07819464910997     -0.47657070219842
  C   -0.26087189455033      0.04888210119182      1.03429437986996
  F   1.29527972280566     -0.00742945140235     -0.72262604208460
  Br  -3.12698031833720     -1.12645110885390      2.97512470695861
  H   -1.31257458251909      0.24427107179283      1.26461798119627
  H   0.32902418838404      0.88908920116903      1.43463112204282
  C   -0.78892834722934     -1.08522385070545     -1.16872457751458
  H   -1.25346358208134     -1.74544954972783     -0.43752173839711
  H   -1.53971711395917     -0.72526294971303     -1.87604402864019
  H   -0.04534181249006     -1.65611426367978     -1.72528135219934
  N   -0.50161311033416      1.33854152089116     -1.06808142104064
  H   -0.14964382297703      2.09535502256135     -0.48865899838952
  H   -1.51344380390584      1.38800645875353     -1.03364955438393
  N   0.10548067312805     -1.23741809660762      1.60938316035058
  H   -0.64442461181802     -1.50729510718653      2.24257667003250
  H   0.96490302288315     -1.16230564759317      2.13417039439761
