14
Coordinates from ORCA-job run
  C   0.40340778976050     -0.08458051328566     -0.01559957052447
  H   0.71086621512977      1.85923532245759     -0.88775050144253
  Cl  -1.53780981096162     -0.45461554198342     -0.85484023869550
  H   2.16776065374853      0.03129061088987      0.05012451197860
  C   0.35289697196949      1.44684404969437      0.05915580196336
  H   -0.69694742005018      1.73086653661880      0.17283763203838
  C   1.39578625768928     -0.63046796218486     -0.92978083613147
  N   1.77213810914104     -1.25242592334564     -1.88049642772777
  C   0.22683021072323     -0.81045349318279      1.30785367691425
  H   1.09873090372059     -0.70112583821552      1.95447362191753
  H   -0.64522527194906     -0.40139865358281      1.82119233455134
  H   0.04184979302145     -1.86727266700771      1.10918419827744
  C   1.09980654482964      2.04504870095827      1.16587283915016
  N   1.63426905322735      2.56705537216948      2.07401295773068
