15
Coordinates from ORCA-job run
  C   0.60895269793707     -0.07860208055717      0.00206704039876
  H   1.77787951749884      1.70132368467090      0.21086807176471
  Cl  -1.74523083315889      0.16388168873748     -0.04196464220579
  Cl  2.89332759838730     -0.45261553476434     -0.31785176040493
  C   0.74577605842019      1.43500309216697     -0.02016355887572
  H   0.10339898861451      1.81285564623057      0.77799203513564
  N   0.41871566974991     -0.89188150209729     -1.24330816897281
  O   0.47181553033243     -0.30067834954732     -2.31099885549658
  O   0.23262156963229     -2.09097028045582     -1.09092858788082
  C   0.65055991061869     -0.77659829096287      1.33582425056067
  H   1.44990102258949     -0.33777408132903      1.93289790744096
  H   -0.29918691104902     -0.68553799555029      1.85728021680203
  H   0.88352603468096     -1.82670910005275      1.18045935432835
  C   0.36751869202911      2.15796794391579     -1.23061321602793
  N   0.11879445371712      2.89024515959516     -2.11353008656653
