13
Coordinates from ORCA-job run
  C   -0.24959497219311      0.02042522044573     -0.28765275798628
  C   -0.18503770464364     -0.00069236113522      1.22434586874766
  Br  1.61169063460910     -0.02106143542966     -1.12598595940504
  H   -2.72767948641497     -0.45060559676517      1.21927736146359
  H   -1.37133781822096     -0.10993262337701      1.44520462205903
  H   0.22834712034869      0.91282378149349      1.65806138073159
  N   -1.02962719961333     -1.04280604550748     -0.84657922944515
  H   -1.91944642986839     -0.98310048811610     -0.29592863732892
  H   -0.59011236294172     -1.91876899123841     -0.57295802598827
  C   0.46687717382215     -1.17999564311428      1.73710952904690
  N   0.94728374354670     -2.16851043866557      2.15879264680021
  C   -0.79798724826362      1.31424215527625     -0.71471934268834
  N   -1.21313545016688      2.37300246613343     -1.01070745600701
