14
Coordinates from ORCA-job run
  C   0.69294445953356     -0.06021263734783      0.05161452683593
  H   1.75352450503647      1.81177868340028      0.07811028510969
  F   -1.11056174034808      0.03262328127493      0.02036438977185
  F   2.48288787594078     -0.12524855322215     -0.12103701397933
  C   0.72093282787196      1.46932120795413      0.03809881544074
  H   0.26083570689045      1.81074859904580     -0.89041708566426
  C   0.61746882478796     -0.75319104639427     -1.22327865348237
  N   0.55805276742143     -1.32070628251717     -2.25017564947914
  C   0.66815383090596     -0.87223377030844      1.32932327915460
  H   1.65049766231022     -1.29948108485854      1.51315556267387
  H   0.37673910965333     -0.22729788270718      2.15993341776817
  H   -0.08770870882309     -1.64980321003686      1.23663297175105
  C   -0.02517778940313      2.05969086073614      1.14783865238987
  N   -0.53422933177781      2.60201183498115      2.05607650170933
