12
Coordinates from ORCA-job run
  C   0.71934314177654     -0.06289994407821     -0.11695167512291
  H   1.71339070436153      1.70920356283140      0.56342655706853
  F   -1.13940990210503     -0.22933776194043      1.25531656305274
  Br  2.40444903413221     -0.52617278428768     -1.11330040538120
  C   0.76937563976476      1.44276464346828      0.08446025392410
  H   -0.10975780357933     -0.37901896032298     -0.73189837325424
  H   0.69405993256269     -0.58748489396788      0.82763216350691
  N   -0.29183549839608      1.97234711452982      1.03802685813657
  O   -1.32649789137651      2.40293585999939      0.55453474528986
  O   0.06575074507619      2.05896307008220      2.20416801044497
  C   0.66407472866281      2.18617795398609     -1.17331784153449
  N   0.63347716912024      2.79899213970000     -2.17434685613083
