17
Coordinates from ORCA-job run
  C   -0.44080090017922     -0.00117097714369     -0.23012091426799
  C   -0.13296030697780      0.03817094202576      1.13544335210229
  Cl  1.68734920347793     -0.34916810847056     -1.38761742142625
  Br  -2.97153880297981      0.09766704183161      2.34173756115398
  H   -1.49613332964286      0.13807721461390      1.45497006779012
  C   -0.76769681543242      1.25884741808744     -0.83189157540374
  N   -1.07381322343194      2.30800842890124     -1.27568359926678
  N   0.52586095319511      1.15342601095361      1.68985285798401
  H   0.25827481584580      1.25053664822706      2.66152840097809
  H   0.34870049791798      2.00849307781007      1.17914952258826
  N   0.21687557951144     -1.15245762921478      1.84549996806791
  H   1.08901905201497     -1.48803220154587      1.43921066659980
  H   -0.49924187376335     -1.85788476996493      1.72843818868667
  C   -1.10313164883194     -1.21014694086990     -0.82281524490148
  H   -0.53169430662180     -2.10517292121431     -0.58028985779808
  H   -2.12512638779881     -1.30411059724786     -0.43043231451506
  H   -1.13534250630328     -1.11958263677880     -1.90715965837176
