17
Coordinates from ORCA-job run
  C   -0.13137202252908      0.02398704083998     -0.31672344278865
  C   -0.13225018274105      0.08885842396304      1.14019166527553
  F   1.23013817167588     -0.12108163485938     -0.92724394126214
  H   -2.42160597849193     -0.41181014782185      1.88714104979728
  H   -1.57276954821048     -0.04574668545256      1.53190791947735
  C   -0.91552885807358     -1.13466917439017     -0.89317827778680
  H   -0.44688336039407     -2.07801862084283     -0.60577412841270
  H   -1.93343624368721     -1.12589966373208     -0.48895729720623
  H   -0.94443404956761     -1.08694866710567     -1.98573983433798
  C   0.49708894610241      1.32499809515185      1.73531584643218
  H   0.14680646432753      2.23368503282351      1.22563693345798
  H   0.21928375484740      1.40670012831163      2.79413134845891
  H   1.60031466965161      1.32508244143940      1.69040852338916
  N   0.29813552992848     -1.11836265323750      1.83000766338147
  H   0.93680071558133     -1.66592331367758      1.26200803841520
  H   -0.52712822874519     -1.69183769957780      2.02642492728097
  H   -0.47179977967444      0.97533709816802     -0.74620699357153
