15
Coordinates from ORCA-job run
  C   0.53573262278842     -0.03140285938480     -0.04922293986404
  H   1.72447869315540      1.75547122959827     -0.27040649941191
  F   -1.13922467446985     -0.01633602332078      0.03663444236031
  H   2.41091712386812     -0.24750672690009      0.21291866213317
  C   0.68743728867924      1.49069216356587     -0.08774438301497
  H   0.40130584716960      1.85269313213900      0.91209011226982
  C   0.69613454367986     -0.80009779751043     -1.35115704380128
  H   -0.24144968697340     -0.72382328729648     -1.90416370630367
  H   1.50537172201759     -0.39685747515969     -1.95396488782499
  H   0.91172819095520     -1.84763012627509     -1.13581970244813
  C   0.80970106598919     -0.69211255356050      1.19686654807600
  N   0.73291449286527     -1.22516732984685      2.25347387769304
  N   -0.13967759049403      2.04253232637132     -1.16825560689841
  H   -0.09622531665974      3.05405435946969     -1.11711148981863
  H   -1.08775432257084      1.75054096811056     -0.96427738314632
