14
Coordinates from ORCA-job run
  C   -0.26532414026094      0.00920486671512     -0.32258037545045
  C   -0.23131263705798     -0.12334883354006      1.16634604979068
  Br  1.49963054187800      0.30669140627361     -1.16486146485334
  H   -3.01658533761413      0.43232941924252      1.57658601912721
  H   -1.32381174089517     -0.06277482173962      1.45254886680483
  H   -0.88662743485525      0.85277835738662     -0.61676684876626
  H   0.18894595275005      0.82215517278147      1.52890299612988
  C   0.50116020562543     -1.30255320567924      1.78457785142840
  H   1.52585395043457     -1.40424888805438      1.41293823093807
  H   0.54368734116741     -1.15353397041356      2.86731029132179
  H   -0.02106430115083     -2.23967169014540      1.59762816977281
  N   -0.85813844015351     -1.16924849864573     -1.04697419151994
  O   -1.74272838701274     -0.92062527794398     -1.86204024943397
  O   -0.41583557285489     -2.28748403623733     -0.79777534528972
