10
Coordinates from ORCA-job run
  C   0.63327398921035     -0.01252769692866     -0.04176035218953
  H   1.66989565285139      1.80423472831730     -0.49074802335669
  Br  -1.84409829976242     -0.16133104304804      0.05203075012255
  Cl  2.94128354022010     -0.35479489874186      0.41815919217723
  C   0.71748496414417      1.49526603278318     -0.06370541242829
  H   0.54635223329184     -0.58219411329347      0.86059255552388
  H   0.64817837484211      1.87033581857894      0.95681318290792
  H   -0.10094260892349      1.91025709081538     -0.64922209431878
  C   0.71643939935558     -0.71860483064081     -1.28988390618628
  N   0.78892275477034     -1.24067108784195     -2.34298589225202
