15
Coordinates from ORCA-job run
  C   -0.23083282242701      0.02166370863209     -0.26284150608424
  C   -0.15392859678775      0.06449591224386      1.18540082082342
  Br  1.62855971135210     -0.06482866038036     -1.29514338742164
  F   -2.67239424094345     -0.33023511156351      1.31434359506994
  H   -1.42082362841686     -0.01455188064327      1.34076444874251
  H   -0.65818386556522      0.91969285130470     -0.70610615531114
  C   0.46498953696262      1.32778860521747      1.74326162674906
  H   0.02129229831395      2.21937159704028      1.28599974042983
  H   0.30031651660305      1.39676003884741      2.82463323084289
  H   1.55049355525902      1.36931879549557      1.56427641191483
  C   0.39280508665065     -1.20120465400485      1.81230571404167
  H   1.44589094076288     -1.37999072081787      1.54836627152431
  H   0.31831314421055     -1.15012069329692      2.90440810466568
  H   -0.20026259203155     -2.06194716472935      1.48838597286921
  H   -0.72313504394298     -0.87081262334524     -0.64198488885633
