15
Coordinates from ORCA-job run
  C   -0.32022069687356     -0.08208570412717      0.02587690482505
  C   0.06521806847298     -0.03132890865135      1.37953156314572
  F   0.38424901178444     -0.22379302954207     -2.73470936460747
  Br  -3.31972824685353     -0.23491729450122      2.17529759490355
  H   -1.89203291294050     -0.17266670938468      1.83527092989285
  N   -0.32951253809351     -1.26973684457087     -0.65744951504286
  H   -1.26208149307413     -1.37261158277430     -1.05770127260505
  H   0.19532073893211     -0.88177152629187     -1.72579810071940
  C   0.32196038324219      1.22471620429693      1.99648760984557
  N   0.49205596460192      2.29754753020494      2.45627675237516
  C   0.47241733491054     -1.21059814243260      2.06526069730264
  N   0.80935525760508     -2.14250288314441      2.70154767799146
  N   -0.70574486351334      1.04595971323413     -0.62164688008730
  H   -0.50092963437754      1.93484133660278     -0.18857753446888
  H   -0.51111637382314      0.95793784108177     -1.62239706275107
