16
Coordinates from ORCA-job run
  C   0.46948549309897     -0.02015717174823      0.03616339985357
  H   1.70663833072277      1.64657830878714     -0.12960024258897
  Br  -1.76879800754042     -0.31854953888608     -0.26125772977709
  H   2.62727089406856     -0.37730670159380     -0.21337713302874
  C   0.63438540198573      1.49750962474190     -0.01020095116439
  H   0.74915011233286     -0.53125376259324     -0.86556259665115
  C   0.60963153578280     -0.72890281010361      1.37176851891000
  H   1.56103071907307     -0.49247161036934      1.84012081537286
  H   -0.21963522357922     -0.45861243149548      2.02998192173700
  H   0.58489066443204     -1.80698857325478      1.20626204121254
  N   0.13672740649537      2.11197403526514      1.24177655982715
  H   0.43042679288147      3.08468611748363      1.22337646004607
  H   0.62659431231692      1.68801191167033      2.02458188473629
  N   0.00477649893025      2.08044117205353     -1.17957069729163
  H   0.26312111114076      3.05999700164621     -1.23263165936568
  H   -1.00023604214191      2.01601442839670     -1.06039059182781
