18
Coordinates from ORCA-job run
  C   -0.16586291329391      0.02956118317108     -0.34597214020203
  C   -0.16527680567594     -0.06794461620504      1.11404729342308
  F   1.17888930004108      0.20804546759857     -0.94380320246460
  H   -2.47401748899990      0.07185269773609      1.94964065549501
  H   -1.46902823535698     -0.05425052420859      1.48859104708930
  C   -0.86658926834111      1.26359436814124     -0.75666475075639
  N   -1.44063560054078      2.22914961920923     -1.10286888968484
  N   0.33323782436808      1.11627436047934      1.79890038161649
  H   -0.46590513381844      1.70561569113014      2.03400176919484
  H   0.96300254963950      1.65160230609156      1.21214359015207
  C   0.39566921439581     -1.34077723930315      1.70487183371435
  H   1.47567982631911     -1.46748840970132      1.53533224949072
  H   0.23044860468450     -1.29644156427357      2.78588683348691
  H   -0.12179043792604     -2.23394169032989      1.33640626314810
  C   -0.75594462296511     -1.16809080118367     -1.06678272428309
  H   -0.11876687705797     -2.03676136973376     -0.89855723915170
  H   -1.75695077769847     -1.36894685543890     -0.67408491525734
  H   -0.81075915777343     -0.97988262317939     -2.14145805501086
