16
Coordinates from ORCA-job run
  C   -0.26127319568225     -0.02814959505904     -0.25221559138413
  C   -0.10324202163499     -0.29571911542349      1.22476871765039
  Cl  1.47245746774722      0.51445035768770     -0.88876242700851
  Br  -2.63841294796345      3.09880519810958      1.39067515304981
  H   -1.06368159139548     -0.69868495649843      1.56051910032698
  H   0.63904696090505     -1.08319746522455      1.34066401251629
  N   -0.40350341575553     -1.33319660490731     -1.06488855864019
  O   -0.79955062801164     -1.21592008178979     -2.21825895739178
  O   -0.12495058337223     -2.39385420944002     -0.51490457590521
  N   -1.28835790652185      0.78989216342284     -0.58246177843414
  H   -1.38892288026745      1.00925849783095     -1.56049528351178
  H   -1.58772852872085      1.53496691606423      0.06318275744238
  C   0.27612044672078      0.96628357093409      2.01847160469460
  H   -0.49469512139828      1.21865513570859      2.74385208294037
  H   1.22931824486892      0.81975466378633      2.53105015998520
  H   0.37283570048196      1.84058552479834      1.37767358366970
