14
Coordinates from ORCA-job run
  C   -0.24933823266639     -0.08931894542697     -0.26095197517975
  C   -0.15963595190615      0.04680973511072      1.09841538528824
  Br  2.12065662707072     -0.59889650667691     -1.35939705896129
  Br  -3.14301099284641      0.33539883695382      2.19673557514644
  H   -1.77588634200537      0.20191462705049      1.47897255397298
  H   -0.59491875436690     -1.00079868145730     -0.72468873615126
  H   -0.05888465976393     -0.91496675069000      1.59994991693854
  N   -0.51609418183079      1.05774604509870     -1.12552171338289
  O   -0.08002384449011      2.16388928678512     -0.81064763816141
  O   -1.21842324246893      0.83240607777104     -2.11376645911925
  C   0.39047483342332      1.23575164710570      1.83505700225106
  H   0.32264145642761      1.06798692309110      2.91222431252988
  H   1.44046035703453      1.37321907017733      1.55493457385901
  H   -0.13617707161122      2.15697863510713      1.59018426096970
