10
Coordinates from ORCA-job run
  C   -0.12547671776397      0.32555061916688      0.05818457696421
  C   0.98700861686344      1.08151686635051      0.71094396114394
  F   -1.14284826961232     -0.02916996981288      1.00308163786323
  Cl  -3.52295205468482     -1.38741129219357     -0.26164930301064
  H   -2.50427804556318     -0.79987860215565      0.31801426808069
  H   -0.67285304110143      0.89566555690746     -0.70848793993695
  H   0.17104659880639     -0.63464502877297     -0.40106562656363
  H   1.93702244990116      0.96047960394837      0.18824847593029
  C   1.09543877903283      1.02483364155996      2.10368125939235
  N   1.19518168412186      1.04583860500193      3.28955869013649
