15
Coordinates from ORCA-job run
  C   -0.20301855545228     -0.13863774588703      0.19989961364939
  H   2.01488118602639      1.39631661173368      0.39672573959223
  F   -1.49841872102811     -0.35679602452872      0.66610774257332
  F   2.93505091856521      1.65819086904284      0.27083476420958
  C   0.27768083023727      1.25006488629620      0.12688053481307
  H   -0.12742670789996     -0.57290348026156     -0.79351277768033
  N   0.63808396425987     -1.08240530088931      1.05928009422004
  O   0.86546995134018     -0.79968093609151      2.22853423623026
  O   1.03136730314455     -2.10717148204352      0.49069365154577
  N   -0.24341263942648      2.15097809936873      1.10021912265974
  O   -0.32954806437269      3.35860538577144      0.78586451066943
  O   -0.56798342448797      1.72944041105496      2.22056809595563
  N   0.31187941120591      1.76302106728796     -1.21545590599340
  H   1.15096154609227      2.31764195861151     -1.33363912427863
  H   -0.46550699820413      2.40429568053435     -1.34871029816616
