14
Coordinates from ORCA-job run
  C   -0.01123709232014     -0.13995613851747     -0.42182649257528
  C   -0.00308193991649      0.01557710782278      1.11403059823643
  Cl  1.48638747530901     -0.99805644881227     -1.01949266830431
  H   -2.05455505005658     -0.95168462343071      2.70905354252823
  H   -0.87169924637896     -0.53895760751480      1.59308553093196
  C   -1.14877701053095     -0.93961212644948     -0.90146454151374
  N   -2.05147078531813     -1.55814952543821     -1.33000622760408
  C   -0.03567257186782      1.14481221193601     -1.13279001265648
  N   -0.04545951221273      2.18187017773332     -1.68628517505083
  C   -0.12109999701436      1.44597431044444      1.61391927866883
  H   -1.04334812010176      1.90897129955266      1.25392799750301
  H   -0.21421200938596      1.38747514212397      2.70116139424588
  H   0.72624432899779      2.08612056977270      1.34888389723290
  H   0.90990153079708     -0.45290434922293      1.48679287835746
