12
Coordinates from ORCA-job run
  C   0.70888019164497     -0.06758119763374      0.03866246568795
  H   1.75447809583800      1.78067303657391      0.22687854568894
  F   -1.09431062428584     -0.07276296973355      0.07766524395397
  F   2.47032601858125     -0.17001746661266     -0.25360162812079
  C   0.72622479739072      1.44896523991261      0.08730974235149
  H   0.60300703021330     -0.56270874767287     -0.91190898557224
  H   0.35029996222342      1.83817710519766     -0.86177473763156
  N   0.80920446600419     -0.76932431696250      1.28390473052753
  H   1.60030075963386     -1.38988718987891      1.19872403646183
  H   -0.05745223062091     -1.27444951210732      1.39558947815294
  C   -0.10138470491681      2.00672805866855      1.15865973836543
  N   -0.68669376170617      2.57009796024882      2.00554137013450
