16
Coordinates from ORCA-job run
  C   -0.29226343791405      0.00287853800059     -0.34004298416098
  C   -0.18814483546621     -0.12548510108411      1.07972062667882
  Br  1.76275105003135      0.18281828110119     -1.26484792462815
  F   -2.65619732283860      0.40635134837714      1.37392616394883
  H   -1.52878259106366     -0.01353122282769      1.28236300284427
  H   -0.55533080914660     -0.93842403523880     -0.81986756230621
  C   0.33708537735909      1.07695576562513      1.83867801941591
  H   -0.22427472908333      1.98132132479045      1.59256263193756
  H   0.22195240358539      0.91500843387344      2.91589764814571
  H   1.40205230741390      1.24519394690668      1.62020363778013
  N   0.38690987932389     -1.40704496666566      1.45586402400862
  H   0.22751739303588     -1.56499270627920      2.44448691714023
  H   1.39622069194323     -1.36373908642273      1.31095127198810
  N   -0.99396530470781      1.12965100578167     -0.90472688317266
  H   -0.46436929567287      1.96957214634036     -0.70258611842675
  H   -1.85147077679961      1.16953632772154     -0.34713247119348
