16
Coordinates from ORCA-job run
  C   -0.14442796894849     -0.02727378287239     -0.20034112743431
  C   -0.21845281001596      0.04337623284763      1.22267280979495
  Cl  1.72228502914908      0.12924923344545     -1.01689858902926
  F   -2.59819706187088     -0.85165682048738      1.25302478160723
  H   -1.59637976047278     -0.29510184469021      1.33111691851722
  H   0.03307048021195      1.03143096419411      1.60014479097278
  N   -0.64948293497517     -1.19202495253162     -0.77818648824778
  H   -1.54840986538532     -1.37542825500484     -0.33365867061718
  H   -0.73331719175070     -1.09991404268029     -1.77997447569468
  C   0.45587502343902     -1.10393409893716      1.95043919509935
  H   1.50907496093784     -1.21388459162297      1.66030578358962
  H   0.41028095649531     -0.93904169934811      3.03163382850413
  H   -0.05226526064378     -2.04719794414742      1.74187407654754
  N   -0.70885815195768      1.27040052537949     -0.84673238829290
  O   -1.36007810736211      1.13563325595535     -1.88168674265387
  O   -0.47770733685032      2.34400782050034     -0.30486370266285
