14
Coordinates from ORCA-job run
  C   -0.04615590019794     -0.04601351494684     -0.37670028131581
  C   -0.10222232590823     -0.09055833061118      1.08635886585151
  F   1.30357392433828      0.02831842957169     -0.93472782111397
  H   -2.48705342553837      0.54731715534342      1.43006826231592
  H   -1.59214349811868      0.13335565458522      1.32724741696899
  H   -0.45052811835923     -0.96438339420584     -0.82128713337987
  H   0.28132134710233     -1.03285362217476      1.49389306830133
  N   -0.72384212606309      1.10003246395507     -0.98229423663744
  H   -0.16641923595482      1.91195478552648     -0.73438175274750
  H   -1.59683003233892      1.20262054200866     -0.46199100095153
  C   0.41624246451400      1.14435615666730      1.78941666762106
  H   -0.36833970531120      1.92236968263565      1.83404501094039
  H   0.67455412745330      0.91404250733948      2.82949652357200
  H   1.30798250438256      1.59990148430565      1.33101641057492
