16
Coordinates from ORCA-job run
  C   -0.55692877025909     -0.31734909328956     -0.10393219522060
  C   -0.24756294406562     -0.17639308374481      1.28581082231596
  Cl  1.68229214592039      3.00298342940029     -1.13621126410961
  H   -2.70058171768706     -0.18162728314754      1.32507771626067
  H   -1.48606380552274      0.00761513078745      1.55182506267811
  H   -0.11546381931330     -1.14530692755384      1.77389476024072
  N   -1.50677798787650     -1.27332950848730     -0.43039028942376
  H   -2.36506135199928     -0.85087654669647      0.16096426413102
  H   -1.30025553611702     -2.10613877068114      0.11450635984196
  C   0.66761489974307      0.92481884985605      1.77315432741838
  H   0.33517701180548      1.90075817180875      1.41742691285172
  H   0.68102057033948      0.94287276345443      2.86659852451901
  H   1.69202363228009      0.80522703767311      1.41410752214142
  N   -0.43699934857488      0.69407140545620     -0.95636928991023
  H   0.24073482363551      1.46897360059560     -0.86410926782229
  H   -0.82402780230852      0.54361082456881     -1.87421396591244
