17
Coordinates from ORCA-job run
  C   0.53622894473114      0.14275382342797     -0.06393146045851
  H   1.79531611779168      1.63565594173651     -0.83536475274912
  Br  -1.29594942929899     -3.26999089395793     -0.31192504115667
  F   2.55595320883648      0.02730547537356      0.78277390984177
  C   0.90404453583731      1.61116148523260     -0.20866259961579
  N   0.29036262727992     -0.51966696759979     -1.16725320492971
  H   0.35814104766141     -0.03359229256847     -2.04521508283804
  H   -0.12442637611217     -1.45985860006041     -1.12503666204868
  N   0.06995356375276     -0.33229115312786      1.11839834951353
  H   0.84319290557502     -0.25525543431602      1.77166017284249
  H   -0.29455300875537     -1.28190074508618      1.04053210158264
  N   1.24473107864692      2.28313562619784      1.02865427212569
  H   2.03456893851683      1.71622674020287      1.35242932154323
  H   0.48044601842295      2.13960504722749      1.68359101756040
  N   -0.20136636928939      2.24324140832205     -0.93701580076666
  H   -0.03513195491660      3.24330717987181     -0.89295636815535
  H   -1.06367184867992      2.06766335912400     -0.42847817229125
