19
Coordinates from ORCA-job run
  C   -0.18728359626348     -0.00607337404775     -0.25007966755126
  C   -0.17250347155494      0.04125372420900      1.29125706328741
  Cl  1.48043262409743      0.24959802283352     -0.94213431090724
  H   -2.93354904901949     -1.19326257698467      1.38176193625789
  H   -1.25193327637759      0.06993693799425      1.54438896151019
  C   -0.79316310758840     -1.27099537764425     -0.78268216503760
  H   -0.12680817143737     -2.10391203661521     -0.56054070277207
  H   -1.74755476573383     -1.41030381111710     -0.23398313595474
  H   -0.95222651173272     -1.21236632321662     -1.85843742591606
  N   -0.98729493213986      1.19202273138794     -0.79029823825376
  O   -0.72880056527641      2.30442816669177     -0.33259363403350
  O   -1.83511734444616      0.98320730382359     -1.65032711599431
  N   0.53797389766604      1.14295432378037      1.92454293595289
  H   0.17330595280182      2.01687384348172      1.57031866541165
  H   1.51475568674475      1.10065775274261      1.65160407012888
  C   0.33072411459560     -1.27840781492689      1.85874358134192
  H   0.47735531591021     -1.13010625588891      2.93021741424679
  H   1.28294142906091     -1.59127461128198      1.41472396685966
  H   -0.43238422930649     -2.04604062522140      1.72251780142324
