19
Coordinates from ORCA-job run
  C   1.28523501892469     -0.01768432035590      0.10421066076102
  H   1.51963970474495      1.92764320847467     -0.67372060368848
  Cl  -3.02114295827837      0.75134857451252      1.16396736568846
  Cl  2.87771537479052      0.12338204239187      1.00836141041132
  C   0.74089514428828      1.41050776932774     -0.09967234529976
  N   1.60811750324532     -0.52682452750860     -1.20895387674646
  H   0.79899170095735     -0.28119624530959     -1.77707183396658
  H   1.69271437829245     -1.53601468681733     -1.17026492694798
  C   0.32732770677848     -0.89834306661458      0.92832122532258
  H   0.82009938580076     -1.34830493725992      1.79049659649393
  H   -0.54530739208161     -0.34233480448954      1.27579815177841
  H   -0.05962699185794     -1.69988669970895      0.29533426430632
  C   0.46151480716517      2.17855843071965      1.18912486168408
  H   -0.39945023198332      1.75678855183429      1.70985874783654
  H   1.32785739429491      2.20356184782257      1.85293208091096
  H   0.19756295574332      3.20887678326532      0.93115076356280
  N   -0.43785515410945      1.27827197555570     -0.96550852881651
  H   -0.63189063872924      2.17947159322979     -1.38659556724965
  H   -1.25783770798628      1.05588851093027     -0.39202844604100
