20
Coordinates from ORCA-job run
  C   0.47688259437118     -0.07329441319085     -0.01055832210724
  H   1.61759828394597      1.64433140061768     -0.29213522702835
  Br  -1.91557114107527     -0.20217065431183     -0.16018043377926
  H   2.70298369325012      0.12274010258564      0.41532178072049
  C   0.57002602684644      1.46925972963613     -0.07633507660525
  C   0.76084883043405     -0.82002344013733     -1.29856151515861
  H   0.25303929870201     -1.78753027995575     -1.28987523202244
  H   0.39656660140713     -0.23216469334838     -2.14112610186684
  H   1.83400611959530     -0.96922670645447     -1.37985659700452
  C   0.48159128297254     -0.88793665494415      1.28188090334372
  H   1.49724399412648     -1.16372848411818      1.53208049617869
  H   0.04527409952351     -0.32148214844192      2.10545263580068
  H   -0.12965400465730     -1.78366736449534      1.14188707868833
  C   0.26291147421370      2.13257922392147      1.26114639270339
  H   -0.75172830501313      1.89899001027045      1.59483829565590
  H   0.98397862490483      1.80601238564681      2.01462333432189
  H   0.35025306455207      3.21953212440170      1.15229273770296
  N   -0.16424105065896      2.03009091906689     -1.22145886603201
  H   0.15438083879612      2.98621871238606     -1.33779939555435
  H   -1.15694032623681      2.04410023086530     -1.02028688795715
