19
Coordinates from ORCA-job run
  C   -0.77565552808872      0.02208553157624     -0.03093789772078
  C   -0.06743055874146     -0.02389066058820      1.13838244086777
  Cl  2.43924600038141     -0.08781080162547     -0.78535554951384
  Br  -3.49331961234345     -0.05274589433183      1.67916150430857
  H   -2.05609379225313     -0.06030617594016      1.00712318334455
  C   -0.97969590308347     -1.21379531648389     -0.85008364811117
  H   -1.15178937242719     -2.08085021491471     -0.20839294938868
  H   -1.84189083931940     -1.07357494015956     -1.50607525870329
  H   -0.08331415019461     -1.39467150146919     -1.45343872726947
  N   -1.04010233863995      1.23366469359992     -0.74412165138170
  H   -0.34930480875467      1.26236153122260     -1.49300706535976
  H   -0.84734749670235      2.03619864576256     -0.15749734680524
  C   0.21654422266939      1.19893065418861      1.95187738865769
  H   -0.58799007150539      1.93587772549936      1.90387909547650
  H   0.34971644546105      0.93950017375732      3.00648027970942
  H   1.14733923403607      1.64177620342707      1.58062654831306
  N   0.38161528802799     -1.24983035651614      1.61765409816609
  H   0.90040667312733     -1.14876611723060      2.47759892950784
  H   0.98087660835055     -1.67433317977387      0.91494662590243
