13
Coordinates from ORCA-job run
  C   -0.37894061945959     -0.08033846117535     -0.20710644564490
  C   0.13765302872695      0.01674351715156      1.07066917121898
  F   1.42658290043654     -0.67115753831249     -1.40286711107791
  Cl  -3.12494946681311      0.03345552551683      2.15777516831031
  H   -1.89566377794633     -0.03206933065679      1.70614281284673
  H   -0.66293438522627      0.85335771139182     -0.68965710468426
  N   -0.79077562230897     -1.27534892903959     -0.74107183879889
  H   -1.20719116014483     -1.09088388132570     -1.64452157325617
  H   0.16956429646503     -1.64966634964333     -0.97136124221649
  C   0.57544178510588      1.27986547023843      1.56476770644089
  N   0.90126426918770      2.32825618297657      1.99042413665081
  C   0.54748653613391     -1.15403764943148      1.77613272432130
  N   0.85787221584310     -2.10943626769047      2.38964359588957
