14
Coordinates from ORCA-job run
  C   0.31015658939010     -0.06171570317283      0.09952797726114
  H   1.28944047140085      1.75612525444399      0.61180319400872
  Cl  -1.81858861075849     -0.31900395812568      0.43864492238658
  F   2.20039425926520      0.07974611236852     -0.60867266722453
  C   0.39737875872197      1.43474833360599      0.08584899032595
  H   0.24628106486981     -0.57203951757593     -0.83977861544231
  H   -0.49424006044614      1.92254127969445      0.48542034041330
  C   0.79634011104454     -0.76706191477981      1.33701545937541
  H   1.87863893705684     -0.66895775443318      1.35523021409382
  H   0.34511887600945     -0.33442531505223      2.23266867846767
  H   0.51623538894160     -1.82002322829471      1.30193207784187
  N   0.55075559295179      1.97780410309672     -1.29354612293859
  O   1.13840395743046      3.05481620614492     -1.38944250615553
  O   0.01909466412201      1.38963610207977     -2.22622194241348
