17
Coordinates from ORCA-job run
  C   -0.21946965178029      0.05549062248527     -0.30090561731569
  C   -0.13677635577155      0.04631018511813      1.13930606228924
  Cl  1.68856796364312      0.03949753233588     -1.17198597358653
  H   -2.55713125393642     -0.42616337672963      1.35307084083349
  H   -1.42731790281619     -0.06676122221226      1.34320603344005
  H   0.22108997774828      0.98833347740173      1.56319795458941
  N   -0.84518436736278     -1.09821103243566     -0.88558045697431
  H   -1.75678824429041     -1.13757095354729     -0.39566161345111
  H   -0.33365113818796     -1.92185259648120     -0.58633031303790
  C   -0.83418792539100      1.30826901334326     -0.86127323580931
  H   -0.82344136337770      1.28046710014580     -1.95058123610604
  H   -1.87537830931294      1.33507721023616     -0.50574907113088
  H   -0.31091746280763      2.19809231428256     -0.50722592139160
  C   0.42584028398873     -1.18615054693956      1.81024735356378
  H   1.37604110052556     -1.50288446080487      1.36406790811772
  H   0.59536487942148     -0.99811241267041      2.87496023171584
  H   -0.28855023029230     -2.01693085352792      1.74733705425384
