14
Coordinates from ORCA-job run
  C   -0.20506498029562     -0.05288704385884     -0.28956865776602
  C   -0.14510756336992      0.05391193292072      1.15194685177115
  Br  1.68205414473606     -0.00771121092505     -1.28163945424967
  F   -2.63668690867702     -0.36959145281559      1.49156012004703
  H   -1.42030018443092     -0.06534363904979      1.43010106985332
  H   0.30574012727987      0.97917460673682      1.50394073313713
  H   0.33120764389017     -0.82677342572469      1.58737086318150
  C   -0.89308437079199     -1.28914657997066     -0.80704475471046
  H   -0.32929158260095     -2.15906290288207     -0.46531084600183
  H   -1.87966817380509     -1.29055395751347     -0.33661039655582
  H   -0.96268707948475     -1.30128552978561     -1.89179289966075
  N   -0.82797474692831      1.20495392135489     -0.88813344532222
  O   -0.52726368243404      2.28212082913670     -0.38518897487360
  O   -1.59016264308750      1.06979445237665     -1.84309020884976
