13
Coordinates from ORCA-job run
  C   0.61501096139201      0.00830311036301      0.11078754707234
  H   1.80142307821033      1.70690946479069     -0.05971848448472
  Cl  -1.65790510961600     -0.14111810211623      0.13329485313904
  F   2.62010719665753     -0.22094322749712     -0.32396050973567
  C   0.73129416141812      1.51518637241073     -0.00487822130801
  H   0.56773452946058     -0.60475539223618     -0.77011642410670
  H   0.26919671190961      1.82859862702808     -0.94282205489501
  N   0.87654360219137     -0.53779392059064      1.39033017374498
  H   1.89626390454503     -0.60139074329938      1.32287811869873
  H   0.49742807803415     -1.47557336025651      1.42320054230483
  N   0.14806731271190      2.28290744853422      1.09079906530957
  H   0.53796119563548      1.90129333292228      1.94604975890260
  H   -0.83427562255011      2.02918638994704      1.12105563535804
