12
Coordinates from ORCA-job run
  C   0.77701766006342     -0.03515712695377      0.05437954783838
  H   1.20720262488684      1.96678985857722      0.72118700356226
  F   -1.31937797267879     -0.33195751092169     -0.10359875711271
  Br  3.08448119432165     -0.09799994633696     -0.34779778328372
  C   0.56391937276687      1.45103641030091      0.00449420420707
  H   0.58221110357663     -0.61168520302176     -0.82646213327522
  H   -0.49026025448531      1.59742898204584      0.23346089671246
  H   0.77970752569383      1.84155979579269     -0.99099547534767
  C   0.72956355487870     -0.71214074037408      1.39431455174078
  H   0.89576627540029     -1.78475283379809      1.28889147394095
  H   1.48184245993949     -0.30549663913375      2.07363673738060
  H   -0.27897354436361     -0.54867504617656      1.76980973363680
