17
Coordinates from ORCA-job run
  C   -0.18883650214348      0.02195146866791     -0.23873737898607
  C   -0.15385298273202      0.01987247827701      1.22829711187931
  Cl  1.61701430448204      0.09704989308389     -1.06013601845561
  H   -2.29465123662680     -1.08522483833675      1.53402681362464
  H   -1.37601423129145     -0.30099726100255      1.43858210071999
  N   -0.84172255902793     -1.07824576537236     -0.84238428740610
  H   -1.64440311628581     -1.28960325099048     -0.21995133950898
  H   -0.21564172466012     -1.87112004863804     -0.79749811406279
  N   -0.87728798360902      1.29692508332299     -0.72121426216192
  O   -0.25229933475241      2.35458912256284     -0.72588846170507
  O   -2.07388749304658      1.18559487127631     -0.98076944650419
  N   0.22771369500842      1.21944189602763      1.93251648118871
  H   -0.43099283798466      1.96194019882802      1.73344731757749
  H   1.13762796294957      1.53256569261860      1.60341336668720
  N   0.48005201948703     -1.16053815124768      1.75967358934698
  H   -0.24883066917625     -1.85922301547137      1.91268358020839
  H   1.17540268940946     -1.52932837360598      1.12113894755801
