20
Coordinates from ORCA-job run
  C   0.67723628613533     -0.02616507410246     -0.01906143990238
  H   1.69052752783427      1.81599189039442     -0.25221525556077
  F   -1.51533316822435      0.14547677274099      0.02118551357113
  Br  3.26412996455946     -0.25163909500147      0.12310671817123
  C   0.66647359142273      1.50463593658914     -0.04589749786444
  C   0.60309775334370     -0.75258650853959     -1.32808568116604
  H   -0.46192446320301     -0.86512742030093     -1.53327814226943
  H   1.06844478196346     -0.17134411099236     -2.12010076010686
  H   1.08337518757266     -1.72703771873813     -1.24900681524977
  C   0.53271107236181     -0.82944647062147      1.24472650871165
  H   0.99674717748929     -0.33837359722409      2.09646474636591
  H   -0.54044055498310     -0.93544725773681      1.40140547385144
  H   1.00159743133551     -1.80393081945006      1.11849994650070
  C   0.23511630098538      2.09993592014734      1.29405935171358
  H   -0.75979620624388      1.72231128157475      1.52835639374200
  H   0.93612324213403      1.85991794431892      2.09824673850479
  H   0.19924652418287      3.19139800876034      1.20360152198038
  N   -0.15074348584666      1.94951961439115     -1.17859024789323
  H   -0.18408962487085      2.96287008515551     -1.15986307913503
  H   -1.07304933794864      1.56167061863477     -0.97220399396490
