10
Coordinates from ORCA-job run
  C   0.62987124328074     -0.02168243297360      0.04527520352327
  H   1.68996572072173      1.81417820937548      0.37566157630110
  Cl  -1.72077706942023     -0.10034151207820      0.05090265477409
  Cl  2.89633895148002     -0.39846782310905     -0.43800134555756
  C   0.71126910958729      1.48531576426439      0.03210658973123
  H   0.49775353134162     -0.60984831009914     -0.83941119579017
  H   -0.06403958030129      1.90459863808907      0.67055649376298
  H   0.55245417415167      1.83938884033098     -0.98592617193294
  C   0.72181949292516     -0.70054569798301      1.30830221257005
  N   0.80285442623327     -1.20315567581690      2.36948398261796
