13
Coordinates from ORCA-job run
  C   -0.05955542058687      0.05781988546924     -0.29908184340988
  C   0.02205997581302     -0.02116552852253      1.08665139776564
  Br  2.06523067138373      0.28491496072004     -1.40046826595683
  Cl  -3.06446591952149     -0.02238723119809      2.59491548151140
  H   -2.09575219076182      0.03355482120186      1.72144674186731
  H   0.18366322521494      0.90035425650408      1.63980748287325
  C   -0.49229389668856     -1.09762467381685     -1.03824404477248
  N   -0.91019405107890     -2.03343838426844     -1.61895499606461
  C   0.37875914576140     -1.23259753264639      1.72142658901229
  N   0.65617226034253     -2.23256533957408      2.28373900573403
  N   -0.82074656632338      1.30626457272499     -0.77769568884776
  O   -0.32741456714548      2.08961002261224     -1.57062788274609
  O   -1.95083266640913      1.39833017079392     -0.29458397696625
