14
Coordinates from ORCA-job run
  C   -0.16660761760306      0.05448885555512     -0.37515806182155
  C   0.09093909032398     -0.20886105000839      1.12519409668354
  Cl  1.47250420304987      0.26762340118695     -1.19807306843163
  Br  -3.66984007729920      0.21452487621616      1.24879970956399
  H   -0.41374946288148      0.55358735053141      1.71812172596978
  H   1.15370055243538     -0.21931782247256      1.37031389897990
  H   -0.34990426275265     -1.16215442367026      1.42160992445943
  C   -0.84723525444165     -1.12689918687130     -1.03764579181776
  H   -0.26405627406532     -2.03932692036545     -0.89632532247929
  H   -1.83070305837712     -1.24071873609022     -0.57232745664458
  H   -0.96977953978544     -0.93085504494779     -2.10346928578988
  N   -0.92564481458458      1.24378583816136     -0.67282828856963
  H   -0.51575832860751      2.02664150678323     -0.17286441095451
  H   -1.85539515541119      1.09448135599174     -0.26574766914780
