14
Coordinates from ORCA-job run
  C   -0.20128026973885      0.06694971766919     -0.37089193998995
  C   -0.16606988954633     -0.00643954702059      1.16075986382323
  Cl  1.44584988343812      0.47635497096813     -1.03764501558237
  F   -2.79023498805056      0.73548432387151      1.08106785003679
  H   -1.22782285690397      0.02307591798822      1.47427447538636
  H   0.36945791721120      0.86477967566057      1.54358238299284
  C   -0.55591851265836     -1.25157730397581     -0.92650521295223
  N   -0.83865998170155     -2.30811924667113     -1.35447542332796
  N   -1.14085216921683      1.04651554555605     -0.83298678853073
  H   -0.73511476925426      1.95855877967695     -0.64408047837745
  H   -1.98036350945582      0.95397857953897     -0.15896765664544
  N   0.50550205404739     -1.21452861119388      1.71507090709735
  O   -0.10962016976483     -1.85523563061233      2.56827008084517
  O   1.63532726159469     -1.49604717145586      1.31335695522436
