12
Coordinates from ORCA-job run
  C   -0.44157560886488     -0.09640868201020     -0.31111048641630
  C   0.05080741164291      0.02830119781130      1.12615616714208
  F   0.57933196084429     -0.73053662060178     -1.09095538562780
  F   -2.67615289782868      0.56105086431334      1.02974886996390
  H   -0.57579888082022     -0.56665186010723      1.78461071489077
  H   -1.31653038195051     -0.73818290946885     -0.34718728333500
  H   -0.04482561639913      1.05570295049596      1.47571107542657
  H   1.09872860578505     -0.28752069122408      1.17995089420557
  C   -0.79828465064035      1.23070521119048     -0.92574845649636
  H   0.03880043217551      1.93534982797333     -0.85714637528222
  H   -1.07905671539694      1.11264155284240     -1.97776301311872
  H   -1.66328365854708      1.53356915878535     -0.32123672135245
