16
Coordinates from ORCA-job run
  C   -0.04619116325548     -0.18611871785531      0.07988388614401
  C   -0.30873576962454      0.35472257820167      1.45873008063933
  Cl  0.92716003828206     -1.40661476806841     -2.89141942354441
  Cl  -3.22475692882192     -1.44744742949270      1.26894896584644
  H   -1.37311159609968      0.58524003415879      1.52607676978072
  H   0.91899331533573     -0.04634809465458     -0.41146782610756
  C   0.54936651097964      1.59879439145174      1.73438356628604
  H   -0.07707296920779      2.46888343601707      1.93922011557912
  H   1.16833906703627      1.41793917305640      2.61458134601674
  H   1.20431370571366      1.85433820737696      0.89661926942750
  N   -0.07630600245641     -0.68903157875767      2.46746535730530
  H   0.76329546480666     -1.21475608564171      2.24461112297235
  H   -0.87076614449094     -1.32441993304774      2.43038184337174
  N   -0.88512986658492     -0.88999604552951     -0.57982430350801
  H   -1.80800882317415     -1.12724410803834     -0.13969333564471
  H   -0.51745883843815     -1.24401105917670     -1.49987743456451
