14
Coordinates from ORCA-job run
  C   -0.29259362654346     -0.09734033234141     -0.34959459680245
  C   -0.32467443732027      0.14788002266763      1.25219310551461
  Cl  1.07384719700170     -1.16768269669926     -0.79703274207943
  Cl  -1.98860041099537     -2.66762693293297      1.52255145680124
  H   -1.38749718386707      0.09376991730917      1.51096786514248
  C   -1.54003119205960     -0.66634673901975     -0.87106436961685
  N   -2.51803657240957     -0.92714349225816     -1.47088579113738
  C   -0.09862307542822      1.15915169011838     -1.08282375322333
  N   0.04468527104362      2.16058715847899     -1.68288226305809
  C   0.18316900471023      1.50212264081570      1.52735254117122
  N   0.58958041882903      2.57382528353810      1.78610697780286
  N   0.34909517119636     -0.78224915140543      2.09516948440311
  H   1.29921453595243     -0.94744412850943      1.79215531629089
  H   -0.20530510010974     -1.64597323976158      2.09103676879110
