18
Coordinates from ORCA-job run
  C   -0.23240207777494      0.02654463090446     -0.36150107119145
  C   -0.12673183688136      0.04119846659780      1.17291850693546
  Cl  1.42439556088294     -0.06418250889474     -1.10468795603983
  F   -2.83086530687492     -0.46770351887639      0.94171304487709
  H   -1.19085076933759      0.10031011975768      1.47506702211540
  N   -0.98780200234927     -1.12497352533862     -0.80317144211145
  H   -1.85217261878770     -1.08301920025523     -0.20097500881409
  H   -0.47149487859371     -1.97899102587064     -0.62445605016947
  C   -0.98148460462759      1.24478186648837     -0.86950911181875
  H   -1.08068173585780      1.15089143022054     -1.95154048055848
  H   -1.96937147809912      1.17307278328409     -0.40575415814734
  H   -0.48510293650919      2.17772382271529     -0.61517813795491
  N   0.56986638628051      1.22590488555373      1.79241396635604
  O   0.59445972941532      1.21199763170948      3.02475334215227
  O   1.05064538487950      2.12591869236206      1.10786374974268
  N   0.55698994885020     -1.11720451347180      1.72707095586759
  H   0.26607384270846     -1.91529779099929      1.17831513811982
  H   0.18807939267629     -1.26154224588678      2.65947769063943
