11
Coordinates from ORCA-job run
  C   0.49079228309733     -0.03188660053527     -0.04235022935316
  H   1.78652558371921      1.72826255393134     -0.04941895801074
  Br  -1.87135046009730      0.00450276115976     -0.01512910219546
  H   2.10739246177869     -0.51935719988925      0.41863194828357
  C   0.72391195256552      1.47570059803286     -0.02016940763619
  H   0.27132572930192      1.87794784608399      0.88792406752903
  H   0.22867532163588      1.92271687606092     -0.88157662103763
  C   0.72683619499093     -0.70152135318771     -1.29870412906009
  N   0.85998824919042     -1.26714575396430     -2.32635253030763
  C   1.04927114270056     -0.75476753351461      1.12235837938667
  N   0.99143154111684     -1.26724219417772      2.20372658240164
