16
Coordinates from ORCA-job run
  C   0.52536157931559      0.15349261883945      0.03668219315412
  H   1.77769434530665      1.71543124227198     -0.63976973369604
  Cl  -1.22685088317883     -3.26225555820406     -1.22207355434338
  Cl  1.97241357450251     -0.52428213372114      1.12912531444557
  C   0.81463163497253      1.64428397041924     -0.10609807706904
  H   -0.33777879833170     -0.01879029273826      0.67955616869523
  N   0.39215339269711     -0.50342516250780     -1.16509190078941
  H   1.22762825007209     -0.50611962846461     -1.73183285625702
  H   -0.06078262585655     -1.42695925220877     -1.13223502107416
  N   0.86250182042219      2.28648143949796      1.20951629212561
  H   1.12151860401702      3.25863748579364      1.08397594688358
  H   1.58768390983231      1.84573859500470      1.76274309360498
  C   -0.29160914843250      2.31253247537617     -0.94216091077976
  H   -1.03889141786202      1.58438735397455     -1.25601460537292
  H   -0.78423854820916      3.08609969436434     -0.34824787712549
  H   0.11437431073274      2.76902715230259     -1.84832447240187
