13
Coordinates from ORCA-job run
  C   0.10608859286363     -0.01399145623422     -0.31185727153757
  C   -0.05779299144941      0.20830135375990      1.18488684409945
  Cl  0.07339401817682      1.53375473858595     -1.22962188809714
  F   -2.26656546971427     -1.05141539412675      0.34402699950435
  H   -1.07692644756406      0.58403668531006      1.29138274090359
  H   1.05370816483907     -0.50075553941731     -0.55074738587819
  H   -0.81089974094043     -0.59000366682267     -0.53776163653611
  C   0.91845929844816      1.14454705200232      1.74399600690585
  N   1.70363725160236      1.87431227570319      2.22603871393704
  C   0.00792423450739     -1.16180208043750      1.89776599047642
  H   0.08934843342631     -1.95714980224331      1.15700661415681
  H   0.84992561112756     -1.22268219543332      2.59443566339714
  H   -0.93769095532310     -1.33826197064636      2.40168860866839
