15
Coordinates from ORCA-job run
  C   -0.17156446268205     -0.01655759365223     -0.33851993681444
  C   -0.21954027406583      0.19712225963133      1.08278443126312
  Cl  1.76660105028109     -0.30397706942368     -0.96028529481957
  H   -2.56161744983625     -0.34307988727266      1.47456526216073
  H   -1.53185497791644      0.11045441370705      1.25868828666604
  H   -0.40141400713516      0.88762824542102     -0.89986407974209
  N   -0.87245594011813     -1.15959097655679     -0.84918330746436
  H   -1.81517740926616     -1.06721465592673     -0.44415462097149
  H   -0.47810820982407     -1.97912415922861     -0.39869019973598
  N   0.18127655575101     -0.90987223144597      1.92533557204612
  H   0.89931922363494     -1.47101258765676      1.47695338657698
  H   -0.63966826684730     -1.48691780311558      2.10913766173269
  N   0.27854866299274      1.49598564280111      1.48145701891041
  H   1.29294107564569      1.43476563749185      1.55740758153127
  H   -0.06502557061407      1.66306076522661      2.42209823866056
