16
Coordinates from ORCA-job run
  C   -0.37755362318395     -0.06720276198405     -0.35888178582938
  C   0.07894239701608     -0.15558969496306      0.92651915555547
  F   1.49078276638096      2.44268846079655     -0.68271112248714
  Cl  -2.68547783993291      0.50000916688430      2.32885914496090
  H   -1.59485501282817      0.21959698290373      1.57922756817142
  H   0.48883856504566      0.77463932498151      1.31453340648465
  N   -0.75485648026055     -1.44831165621240     -0.93369591131654
  O   -1.95278641616380     -1.67784943489960     -1.10439177873006
  O   0.15687977604315     -2.21817820354658     -1.24471598780752
  N   -0.52884280390483      0.93640473318746     -1.21705792828503
  H   0.74683941302549      1.86558434997141     -0.95350375057021
  H   -1.31242654963923      1.53689765902858     -0.98369383654364
  C   0.34251571338304     -1.42601636712504      1.68996705552359
  H   1.34482572742527     -1.81837065372577      1.48753932639266
  H   0.26061148913953     -1.24810472019934      2.76629351617096
  H   -0.37286712154577     -2.21127718509770      1.43512292830989
