19
Coordinates from ORCA-job run
  C   -0.25334325118282      0.04816932053540     -0.30823243955612
  C   -0.07640446204628      0.05313541901904      1.13679018258274
  Br  1.92965773729430     -0.01755841289472     -1.24691531764097
  H   -2.49413519323626     -0.64453574405078      1.23857059986113
  H   -1.27853695380667     -0.09268630859209      1.35559275162009
  N   -0.89279116005291     -1.09152325009870     -0.83075472140101
  H   -1.81945322382357     -1.06297904518083     -0.31501480067008
  H   -0.42772310176667     -1.91204393072347     -0.45432433688439
  C   -0.84303329953653      1.29272278251235     -0.89908582067060
  H   -0.93707332915515      1.17310509399750     -1.97768659521780
  H   -1.85046587432759      1.39636615197559     -0.46064907324920
  H   -0.25605556528436      2.18223114505703     -0.67785431221952
  C   0.47184138233806      1.30803842230414      1.77764382035447
  H   -0.15718971322994      2.18086953154712      1.58357879621698
  H   0.52368943145431      1.15171358355735      2.85702504496806
  H   1.48269146722534      1.51368926065700      1.40548572884161
  N   0.50723184638478     -1.14292636760984      1.72493445622697
  H   -0.19781470717664     -1.87350247843266      1.75135638963188
  H   1.27983796992862     -1.44859517357941      1.13749964720577
