16
Coordinates from ORCA-job run
  C   -0.08328183350678     -0.16383395948594     -0.45849160349068
  C   0.31848991387043     -0.12510459491337      1.04922790742710
  Cl  1.45050556867946     -0.83584349634342     -1.30028286081376
  F   -2.37784756965696      1.00681714845635      0.60741571327114
  H   -0.10769165211291     -0.97385627218592      1.57914828595764
  H   1.40324027526027     -0.12030456306573      1.15862426658403
  C   -1.17971414394623     -1.18874411899449     -0.67144384213414
  H   -0.89481664920169     -2.16750340942536     -0.27758627960715
  H   -2.04337904228307     -0.76416914253350     -0.14810799196382
  H   -1.38063263143029     -1.26925883128348     -1.74055275367770
  N   -0.45302394213694      1.05417689158309     -1.07501651946076
  H   0.20562465551902      1.77607020095264     -0.80660120030270
  H   -1.36293313394950      1.25439205161803     -0.56141496499393
  N   -0.10304149349208      1.07445581949783      1.83437126561211
  O   0.28878051066736      2.16890080782525      1.43418307901752
  O   -0.65759883228009      0.87838546829804      2.90872749857509
