18
Coordinates from ORCA-job run
  C   0.48216749616235     -0.04201042171502      0.10960605935013
  H   1.59749864033388      1.75289277382005      0.31563863545871
  F   -1.23371254963094     -0.17646601744269      0.29191872329880
  H   2.31462418598988     -0.15627010958436     -0.48233730872703
  C   0.56268566065961      1.48314256442766      0.10500444289492
  H   0.41650844090459     -0.56307377813165     -0.82468237568335
  C   0.87117152233862     -0.79009107215760      1.36635529403856
  H   1.12374068406002     -1.82274535884450      1.11990718117519
  H   1.74436417979728     -0.34805258162921      1.84481889755667
  H   0.02512578848268     -0.78676881601284      2.06101680971695
  C   -0.31914991467719      2.12962412386512      1.17686776756536
  H   -1.37188999184897      1.94179689515276      0.97531644550468
  H   -0.09420015794479      1.72527695020566      2.16875511557200
  H   -0.13223211338158      3.21105642308659      1.20500128819201
  C   0.20368566699401      1.99430723603008     -1.28217499197689
  H   0.91433166111492      1.58653364322523     -2.00719405540391
  H   -0.80461663244715      1.65737013851779     -1.53659630237643
  H   0.23526743309280      3.08954740718692     -1.33387162615636
