14
Coordinates from ORCA-job run
  C   -0.26290102396122      0.00011255059246     -0.27964653307767
  C   0.07427727294451     -0.04759255059468      1.05241737713866
  Cl  1.74124724487420     -0.21804659559066     -1.88975414951858
  Cl  -2.68939982724813      0.03417620281611      2.10716636770841
  H   -1.29578719084275     -0.10304735861415      1.29041245389889
  H   -0.54120195400084     -0.94235040731875     -0.73253336663802
  H   0.38190243095570     -1.00945337972854      1.45728690230671
  C   -0.73429635822918      1.26013019627978     -0.93214943355512
  H   -0.96693564545387      1.07665628094169     -1.97815998139161
  H   -1.63013611000515      1.62761387644491     -0.41268460562617
  H   0.03934873553217      2.02808033333633     -0.91002524401275
  N   0.56096440781175      1.07213969636666      1.78299935676320
  H   0.07806430081337      1.13650043882698      2.67201384120445
  H   0.39511371680942      1.92832071624186      1.27195701479961
