13
Coordinates from ORCA-job run
  C   -0.32880928827029      0.05764378681999     -0.17517281310711
  C   -0.08746886239267      0.10322893802234      1.23618542191761
  Br  1.64989462372167     -0.36928905323954     -1.29798542507675
  F   -2.63101549148998      0.36082277565047      1.35786943787563
  H   -1.43393995071666      0.23387336310730      1.44859366385031
  H   0.38770980163294      1.03658473896137      1.55894648109765
  N   -0.89203960053049      1.19178913808374     -0.81453895177053
  H   -0.47611779019637      2.02070005639727     -0.40224950927818
  H   -1.86746108957144      1.17117613319032     -0.51721921209391
  N   0.48456105145914     -1.06302926995377      1.88183962748352
  H   1.27720950470878     -1.37466290948949      1.32215647647919
  H   -0.20025941818415     -1.81012120584381      1.86517286463067
  H   -0.80606349017047     -0.86151649170620     -0.51023806200812
