11
Coordinates from ORCA-job run
  C   -0.25504896474853     -0.20659658512910     -0.55430941236528
  C   -0.37841555909591     -0.53264819305281      0.92589647604815
  Br  1.59786604376861      0.02432862478979     -1.20693475521804
  F   -1.69383081771468      1.37580522810787      2.33496747740287
  H   -1.18890527365771     -1.25851461269053      1.04938278566015
  H   -0.64320754975651     -1.00219969999310     -1.20212023579598
  H   -1.13707869710613      0.74805976001920      1.84218817010004
  C   -0.96189876417951      1.02221719326287     -0.93339249665680
  N   -1.56829425769271      1.97373924468651     -1.26301974635205
  C   0.78929221638382     -0.98618856857746      1.58897315429761
  N   1.73524162379934     -1.33763239142325      2.20728858287935
