19
Coordinates from ORCA-job run
  C   -0.27571183866609      0.06160223546492     -0.24649213156538
  C   -0.18370106819902      0.17282556860403      1.18388024701111
  Br  1.85471847550010     -0.11608036864777     -1.07504583244003
  F   -2.70441322594606     -0.07031615839778      1.49513064545207
  H   -1.50053057327038      0.15930682721848      1.38612432072316
  C   -0.89714257950564     -1.21916927508973     -0.75007348206516
  H   -0.34932644866410     -2.09697612060296     -0.40906661896051
  H   -1.90815460084536     -1.23991987303513     -0.32934826106824
  H   -0.93470923169914     -1.23353940797136     -1.84061703402826
  C   -0.79709611261406      1.28970317473543     -0.95163774254120
  H   -0.77995937084463      1.15953522839458     -2.03553141544767
  H   -1.83162537369681      1.41316163619798     -0.61023867949003
  H   -0.22987319355576      2.17261661888947     -0.66947670514706
  N   0.29822606010339     -0.99281145297313      1.91386489550240
  H   1.07255209976752     -1.41660632271499      1.40281495178936
  H   -0.45117589466580     -1.67117976914107      1.98275148500729
  N   0.41514590607399      1.41837224274296      1.62063020830871
  H   1.41630028144153      1.35680859167345      1.42512662666354
  H   0.31786668928631      1.44539662465263      2.62932452229590
