17
Coordinates from ORCA-job run
  C   -0.24439020241704      0.02833279508444     -0.29429769731764
  C   -0.15188962534915      0.02524085320596      1.14494169667661
  Cl  1.66415503053225      0.04757795612068     -1.17731893585981
  H   -2.56534055535412     -0.48815571554433      1.36009188246947
  H   -1.43812745786695     -0.11445380596166      1.35764920980826
  H   0.19032945705793      0.97617000541672      1.56194680841245
  N   -0.85043694099748     -1.13751361145678     -0.87338920280785
  H   -1.75920903402391     -1.19244208741073     -0.37898965760727
  H   -0.32188720981154     -1.95124304342324     -0.57707284020192
  C   0.44361933309316     -1.19024430583204      1.81806942071695
  H   1.41496855690444     -1.46519471640840      1.39022259620457
  H   0.58145147256940     -1.00463600411623      2.88786379700731
  H   -0.23524935422493     -2.04792833629023      1.73333708182411
  C   -0.88643234559410      1.26727788494344     -0.85352869294534
  H   -0.86755068601063      1.24551662927578     -1.94278985576357
  H   -1.93048542315132      1.26422356751772     -0.50478283140043
  H   -0.38969501535601      2.16877193487888     -0.49085277921588
