11
Coordinates from ORCA-job run
  C   -0.11369125113761     -0.06875367795242     -0.34259044110437
  C   0.06936831492316     -0.26295465936140      1.15675868949018
  F   0.81939642441508     -0.84950291023808     -1.02267117306139
  H   -2.28175170178131     -1.16202890652736      1.07876383409196
  H   -0.17519872449065     -1.31012272841480      1.36859300596541
  H   -1.12679205961803     -0.41719497009283     -0.55582444500469
  H   0.04800594576583      0.97405461026841     -0.62877367630715
  C   -0.92921076803496      0.54917876000375      1.87681516526541
  N   -1.34176506812597      1.46049778307470      2.50716367883529
  C   1.43822282602865      0.08449556753980      1.57028032672870
  N   2.53932606205580      0.32615113170026      1.90166503510065
