17
Coordinates from ORCA-job run
  C   -0.03157368182311      0.00875268469018     -0.40906475348514
  C   -0.00318832280524     -0.07280295159677      1.05154150355916
  F   1.28773166459591      0.14303746625453     -1.02980925858842
  H   -2.42121831672010      0.32394303119549      1.58511739216049
  H   -1.49011497046158      0.05815611788068      1.38831749708522
  H   -0.41620765565196     -0.92549243638832     -0.84163560158480
  N   -0.79284440399625      1.12014046374300     -0.97352021260843
  H   -0.28025277710922      1.96310665367456     -0.73453374748381
  H   -1.65454377654701      1.15764514592647     -0.42724168624475
  C   0.48379487590997      1.16823814665743      1.75522079674816
  H   -0.17951614925636      2.02389089496981      1.56304992422533
  H   0.45863831443294      1.01001029620893      2.84211931868442
  H   1.51278901844963      1.47198735261959      1.49289118526882
  C   0.61017873679203     -1.34014216297478      1.59003808542084
  H   0.26549124967426     -2.21518725428799      1.02178160530961
  H   1.71692844740388     -1.36013612640016      1.56193348136795
  H   0.31662774711223     -1.50304732217267      2.63879447016533
