19
Coordinates from ORCA-job run
  C   -0.26144706510552      0.06727160078943     -0.25716320253488
  C   -0.17264552807300      0.18101414918507      1.16955767660274
  Cl  1.69672333616417     -0.12051711836764     -1.04810142350537
  F   -2.66128188656259     -0.13041686558708      1.60467580325369
  H   -1.54326249652546      0.13703311686468      1.41373797794372
  C   -0.89390529489835     -1.20944132289740     -0.76081208391216
  H   -0.34615922723360     -2.08758177031963     -0.42023903894268
  H   -1.90658662495538     -1.24026833734321     -0.34747815415512
  H   -0.92604410651164     -1.22317388677696     -1.85177052073763
  C   -0.76356776274836      1.29747166098861     -0.97371146963587
  H   -0.71137522783783      1.16758456608388     -2.05679414139539
  H   -1.80757822520422      1.43810363681173     -0.67120697037530
  H   -0.19487596902701      2.17371415043756     -0.67364307396178
  N   0.31928263581226     -0.98551336219075      1.89454411142920
  H   1.06742432176400     -1.43101101598129      1.36428846507186
  H   -0.43710661970809     -1.65021385828811      2.00443199641919
  N   0.42957946437118      1.42746636902591      1.60539534533007
  H   1.43754800687380      1.34696234275008      1.45897936876615
  H   0.29043826940563      1.48035594481511      2.60816933433957
