16
Coordinates from ORCA-job run
  C   -0.33198712784478     -0.01442435865275     -0.24488008150101
  C   -0.30566146199232      0.20026103407708      1.15111250851139
  Cl  1.73853996283445     -0.25601924293501     -0.99089293813244
  Cl  -3.02149494139496      0.22409855717931      2.19834698884569
  H   -1.61839599038784      0.26682700395512      1.43014312939828
  C   -0.86893782635948     -1.27472132987126     -0.68179961649271
  N   -1.29351105432389     -2.33006824137639     -0.98711506509098
  N   0.21015317839336      1.45447229707874      1.57949048444203
  H   1.11804540525353      1.61867837545139      1.15314973722113
  H   0.30304413041113      1.40943492123328      2.58571708948242
  N   0.07573269181876     -0.94723487618105      1.94510063248883
  H   0.85705741167683     -1.41875168284391      1.49417493374379
  H   -0.70055029051793     -1.59339066868982      2.03153313566706
  N   -0.80232074265611      1.12270031203608     -1.09582143745225
  O   -0.17925265908329      2.17381314763431     -1.04922273126786
  O   -1.82246068582745      0.91205475190484     -1.75423676986341
