12
Coordinates from ORCA-job run
  C   -0.18004576964954     -0.05154380118170     -0.34389211949633
  C   -0.12508314324423     -0.02521814702991      1.15742262297019
  Cl  1.47432605886932      0.13175538003123     -1.12758403243515
  H   -2.63885023449601      0.06972205600354      1.13114196170722
  H   -1.38392466107352      0.02368026739408      1.33382888430187
  H   -0.73349739128480      0.83173317957322     -0.66995168329132
  H   0.32216113158475      0.88676720148834      1.56110397363237
  N   -0.84126108439365     -1.20606565334554     -0.89193205181041
  H   -1.79096583658023     -1.13357237457672     -0.51266722484415
  H   -0.42094961526965     -2.03697008085546     -0.48492617801504
  C   0.43531543142985     -1.20735577006141      1.74436842946883
  N   0.82805511410771     -2.20846225743967      2.23001741781191
