12
Coordinates from ORCA-job run
  C   -0.11762486781237      0.06606123758813     -0.24459928530936
  C   0.28051292132701      0.13670880278570      1.18505806803960
  Cl  0.94170051549020     -1.15740436138961     -1.05202613730030
  H   -1.39830015186301     -1.36175414929783      0.97514130653146
  H   -0.65338369279779     -0.93102657438503      1.46290484506978
  H   1.28084964017607     -0.21622203431271      1.41420180926028
  C   -1.59936435389930     -0.51455731343884     -0.41545185913643
  N   -2.54906501841849     -0.41052568634716     -1.12916555922696
  C   -0.12572419427634      1.29959471438192      1.90078862909126
  N   -0.48915030443423      2.22288291909531      2.54060259391496
  C   -0.02800519190721      1.31098816637755     -0.98389589585777
  N   0.04041469841548      2.32696427894259     -1.57322851507653
