18
Coordinates from ORCA-job run
  C   -0.10251180399621      0.03515386419276     -0.37993417119701
  C   -0.06253538100193     -0.04567629179219      1.13474489336062
  F   1.21711132150878      0.17136155567686     -0.88123557922707
  Br  -3.78227745154423      0.37154780876919      1.64294536427693
  H   -1.11514835643340     -0.09551394367974      1.43774135058079
  H   -0.46602782473408     -0.92121093740883     -0.77469998388048
  C   -0.95251442133862      1.15884131240925     -0.92277739327174
  H   -0.97794554096738      1.12010209032636     -2.01531472283655
  H   -1.96530908585861      1.06088123009414     -0.52185629089781
  H   -0.55260844425433      2.12988959543734     -0.62388813332802
  C   0.58451995995996      1.19772276025287      1.77195392681466
  H   0.85834170767212      1.95079904917207      1.03057015333393
  H   -0.10031156966368      1.66262155571884      2.48423684977870
  H   1.50389083903435      0.93333433372210      2.30388376526988
  C   0.63987130279068     -1.32376299900631      1.58725785232802
  H   1.68008456417501     -1.33374686876578      1.24682667871669
  H   0.63304445026241     -1.39848924028456      2.67844600503965
  H   0.13618573438917     -2.21074487483440      1.19059943513881
