19
Coordinates from ORCA-job run
  C   0.58934050674412     -0.07727316905890      0.02287279746274
  H   1.83638048880614      1.58686385924207     -0.19260866695257
  Cl  -1.69961987903407      0.09611507820189      0.22528329112111
  F   2.65421373821206     -0.09215233545097     -0.11509497757585
  C   0.77840989822046      1.44602780296233      0.02308760342678
  C   0.51267450743809     -0.90349064894495     -1.23786491399480
  H   -0.12632129978909     -0.45475571451110     -1.99118869425275
  H   1.52710702398820     -1.00710726473939     -1.61251807972716
  H   0.10116917330495     -1.88090416906129     -0.97839229837402
  C   0.75366128761051     -0.82478422560848      1.32849999359605
  H   1.73865395261192     -1.28233457758715      1.29904521820036
  H   0.69603876338054     -0.13792011919444      2.16965671481337
  H   -0.02537813999423     -1.58040394411885      1.42416289292736
  N   0.41783821865235      2.05991234627670      1.24931800170525
  H   -0.58140332395599      1.95561450204790      1.38451405033167
  H   0.64380656691924      3.04418814604365      1.21532074215766
  N   0.08902443868599      2.12332174869589     -1.17924910340271
  O   -0.67325082369399      3.06245101755607     -0.95958755132826
  O   0.43446490189280      1.76077166724902     -2.30167702013423
