15
Coordinates from ORCA-job run
  C   -0.26302680862396      0.05772561786785     -0.32771501628780
  C   0.04960338320075      0.06965761008454      0.98040361464235
  Cl  2.01045843598744      0.07549042676522     -1.96871835142652
  F   -3.20180672215735     -0.73311653111740      1.64955946682073
  H   -2.34055265827783     -0.90584049764706      1.95169841645118
  H   0.24342952330969      0.94667448360744      1.58292033896910
  C   -0.67488551348938     -1.18637653958074     -1.06334463099594
  H   0.02558622618951     -1.99195772318769     -0.84838162768450
  H   -1.68590064009339     -1.46564956872886     -0.74492746492987
  H   -0.64359329868648     -1.00919932367798     -2.13397269013515
  C   -0.56779212684713      1.33389809522991     -0.90882927807022
  N   -0.94148438383015      2.37378102941019     -1.31420013909013
  N   0.21474875438811     -1.18522001614905      1.70323252212178
  O   -0.71318844025227     -1.50735189546767      2.46385793205174
  O   1.24132426918248     -1.83747516740874      1.56427690756324
