13
Coordinates from ORCA-job run
  C   -0.44350190863881      0.18939981710158      0.08607049594121
  C   -0.90858257588131      0.53427063654404      1.40438237060222
  Br  0.81076909039524     -0.69059176077250     -3.49709923740571
  F   -2.71002433594126     -1.21324003185095      1.37779473288800
  H   -2.06534635537033     -0.23906766181786      1.43780879034819
  H   -0.90813827746795      1.60544268553428      1.60398655282178
  H   -0.39313917975763     -0.03598127485019      2.17696536353823
  N   -0.51489383359192     -1.08796890157124     -0.30322094517042
  H   -1.24397403052496     -1.60705837296574      0.17800060787727
  H   -0.27822502815887     -1.30492123146845     -1.26820917751977
  N   -0.01719055384546      1.09688142898049     -0.80150587451928
  H   0.28643746223284      0.78020518572992     -1.72633157075273
  H   0.32616952655041      1.97212948140664     -0.45162210864901
