14
Coordinates from ORCA-job run
  C   -0.34758708919504     -0.00285683665530     -0.28524875653377
  C   -0.24576624191227     -0.01438504885869      1.11198583634358
  Cl  1.60961603856452     -0.25861561754443     -1.33896675901924
  Cl  -2.83692941164343      0.28825322861529      2.39499930884865
  H   -1.54024864949032      0.07324281121249      1.47686515680537
  H   -0.03260877089835     -0.99710188411710      1.53083396345720
  C   -0.72677409828864      1.23202216872261     -0.91399084333804
  N   -1.03135457595892      2.29431237180712     -1.32236874855111
  N   0.42034854535931      1.06559685112597      1.76253857530655
  H   -0.07216573517795      1.29494274993429      2.61889577548961
  H   0.44200114021718      1.89142344509728      1.17651793480679
  N   -1.02868767542403     -1.18895817056740     -0.86508973066902
  O   -1.69218976201345     -1.00967780757358     -1.88365131878808
  O   -0.88634371413863     -2.25864826119853     -0.28095039415848
