11
Coordinates from ORCA-job run
  C   -0.45762685443014      0.29449009000014     -0.25851478004007
  C   -0.42127976056772     -0.13500170091884      1.19313984833241
  Br  0.44686477965818     -1.00303188126831     -1.41297765592350
  H   -2.60419117901975     -1.15357790017727      0.61730319677679
  H   -1.36554560910935     -0.89447558214157      1.15470720351976
  H   -1.53153111020459      0.20405124359714     -0.52794347273094
  H   -0.80779595695832      0.68477547447811      1.80887703095486
  C   0.84007345022716     -0.60303841897215      1.70580324087740
  N   1.82888744108379     -1.03456636175918      2.18052617255987
  C   0.08122163516369      1.61424318813769     -0.53842524614595
  N   0.49733316415705      2.69749184902424     -0.73291553818063
