17
Coordinates from ORCA-job run
  C   -0.27493799634716      0.07447922639229     -0.49651906783698
  C   -0.74002329980022      0.17996653006985      1.00491106655963
  Cl  0.53390734022030      1.61241965839474     -1.07709526293695
  Cl  2.07198355041897      1.07802692283916      3.73825765061025
  H   -1.83289594239432      0.11658190586723      0.93159319423774
  C   0.73917994614258     -0.96429696109653     -0.72710113711206
  N   1.51760356944104     -1.81130765267214     -0.96427148385476
  N   -1.41457133566941     -0.26054301450823     -1.30304832646999
  H   -2.10927039418239      0.47089353893840     -1.19761995311999
  H   -1.15274669105183     -0.31632244123312     -2.28125517658193
  N   -0.42876725877472      1.46845515642467      1.58984425173774
  H   0.51934498808660      1.45132534174316      1.97661006286127
  H   -1.01458241055678      1.57168583390810      2.41136180237320
  C   -0.25270309080599     -1.02526549109140      1.81090432718971
  H   0.82755476582018     -0.97827029467917      1.95742761462173
  H   -0.69750648672744     -0.97757253484860      2.80714901063708
  H   -0.53252925381941     -1.97353572444838      1.34111142708435
