10
Coordinates from ORCA-job run
  C   -0.21266431075365      0.06259327940874     -0.33912497498956
  C   -0.17574902686765      0.03613723582408      1.04644892837562
  Cl  1.90251729815115     -0.04725383995116     -1.40937312457081
  Cl  -2.95981026751080     -0.27563621803032      2.09117264355733
  H   -1.65112360708772     -0.09245215694542      1.45287430607119
  H   -0.46617837800621     -0.84397034281871     -0.87466627824980
  H   0.08588984554448      0.95187433701181      1.56843604935006
  H   0.15534163512176     -0.88831690332236      1.51074680390197
  C   -0.62397272756080      1.27710713683120     -0.99282359001377
  N   -1.02953046103057      2.26449747199213     -1.48871076343224
