21
Coordinates from ORCA-job run
  C   0.54730388577236     -0.07168688704369      0.00824344706143
  H   1.65902010420185      1.60962250199831     -0.10042750982006
  Cl  -1.80596987494069     -0.34443011316667      0.18254997776978
  F   2.67129953312079     -0.06262086123133     -0.14726004437142
  C   0.57994161618109      1.44779567496916     -0.03029067906852
  C   0.57651390925046     -0.83683537968735     -1.29532119935857
  H   -0.23538917671310     -0.53956694661892     -1.95531788022365
  H   1.54678162736380     -0.65220797449826     -1.74874854533801
  H   0.46973315152680     -1.90305819125534     -1.09088279953837
  C   0.77257690154796     -0.77011916649158      1.32980756188143
  H   1.78586838344286     -0.53441585095918      1.64424355100695
  H   0.04288824118616     -0.46512570013775      2.07662276149997
  H   0.68189995617035     -1.84814180441407      1.18932184267994
  C   0.07927699601654      2.12009336903002      1.24499634149023
  H   -0.98031429287661      1.91349187917147      1.40495729049334
  H   0.63938464035805      1.78337222067208      2.12029248769249
  H   0.22097202880127      3.20338256141558      1.16182287243935
  C   -0.07494959767306      2.05570414605423     -1.26711701181829
  H   0.39794804733440      1.69799579651030     -2.18463707093279
  H   -1.13921186885200      1.81576013252566     -1.30168245161386
  H   0.04125578878074      3.14483059315729     -1.24085294193138
