12
Coordinates from ORCA-job run
  C   -0.10129385838847     -0.01288635072240     -0.34318306862932
  C   -0.33131449619924      0.18797650827979      1.11858599289948
  Cl  1.65418810545150     -0.14478801116284     -0.77870899884259
  H   -2.81177479312609     -0.35434877464500      2.17052703548863
  H   -1.43374289444444      0.05994999678967      1.43325044328852
  H   0.20792675355049     -0.58868395762018      1.66514469024360
  C   -0.75705695169111     -1.20356419759706     -0.88568598825482
  N   -1.26564407481609     -2.14181264067062     -1.37771056098023
  N   -0.69222411014268      1.18155624613538     -1.14088811323686
  O   -0.06682073452901      1.63461395482631     -2.09029508288649
  O   -1.79245018790382      1.54551174076208     -0.75133782721286
  H   0.04448724223896      1.17070548562487      1.41694147812297
