20
Coordinates from ORCA-job run
  C   -0.21260729252943     -0.01018971595876     -0.30415828486886
  C   -0.12119085848015     -0.01317439821413      1.14358792400729
  Cl  1.69047354483937      0.06086571513844     -1.15961688766363
  H   -2.56701824802690      0.37683190982564      1.38639982352802
  H   -1.39768058720712      0.08212842306119      1.34067149050535
  C   -0.80051401459929     -1.25706394094841     -0.91016714800631
  H   -0.21615161780372     -2.14712962297814     -0.68116224061685
  H   -1.81362443636007     -1.36471031339493     -0.49268976092559
  H   -0.86552769254904     -1.13300206474558     -1.99068429264390
  N   -0.86883600889334      1.13626143575357     -0.87255183811921
  H   -0.36999918209994      1.96876963228978     -0.57923582667105
  H   -1.77650026013995      1.15450606825235     -0.37482955927870
  C   0.40965586507806      1.26030520114894      1.76824428420915
  H   -0.27404771564036      2.09874823265526      1.59514868904746
  H   0.48539054670774      1.14172824827081      2.85414809080844
  H   1.40151050090868      1.52432248377692      1.37967178022671
  C   0.41637472263861     -1.27263205867039      1.78808825653470
  H   1.44937924306220     -1.47826419205578      1.47528312185721
  H   0.40565713307894     -1.17097322290528      2.87889296911645
  H   -0.19352364198431     -2.14741782030149      1.54523940895332
