13
Coordinates from ORCA-job run
  C   0.56229287468955      0.03232928964293      0.08680306508382
  H   1.81595853823707      1.68341798955445      0.15848364371580
  Br  -1.62660648045026     -0.22739470050980      0.15943387196590
  F   2.60307085390489     -0.16537291963374     -0.16316471699859
  C   0.74445113454064      1.54591631511574      0.04716532973177
  H   0.71956869365886     -0.57709777683534     -0.78109857006453
  H   0.46259880501717      1.84810568205558     -0.96612141030808
  N   0.93875277736617     -0.68466989981499      1.32393982639096
  O   1.16964980192054     -0.00485478636010      2.32464203935546
  O   0.94338420376968     -1.90767046750786      1.29217911793882
  N   0.03333685521207      2.38272235633523      1.00139814966046
  H   0.31458516190011      2.08129347249521      1.92588592796382
  H   -0.95771321976647      2.18807544546269      0.92460372556438
