16
Coordinates from ORCA-job run
  C   -0.27128713788121      0.04767483978909     -0.32348176765476
  C   -0.15198341983023      0.15803879913039      1.13097998321195
  F   1.01861039687694     -0.28072130766892     -0.98993367135999
  H   -2.45199435254430     -0.42210869216371      1.85316606479631
  H   -1.65371152918331      0.00283311669830      1.59927115873748
  H   0.37187922129572      1.06511424953115      1.45411256193888
  C   -0.72033764861625      1.33379523974529     -0.98411895748536
  H   -0.65646249940013      1.22194014248107     -2.06878353009737
  H   -1.75641496273219      1.54725308331553     -0.70718116273298
  H   -0.08791003218198      2.16541659890579     -0.66208261603938
  N   0.31340080127123     -1.02816431997026      1.82900845111882
  H   0.92846337072032     -1.58628888583326      1.24440501533721
  H   -0.49584934727957     -1.60750830659088      2.07001251437427
  N   -1.12171318026179     -1.05806343252920     -0.77821298145374
  H   -1.89533075264670     -1.09905838634791     -0.11363962900156
  H   -0.58359892760654     -1.90273273849247     -0.61659143368975
