16
Coordinates from ORCA-job run
  C   -0.21497514393018     -0.00046539169411     -0.34354543563214
  C   0.11173627674434     -0.12864852552643      0.98255769798776
  F   1.69543229411687      0.93469915916385     -0.94752776849372
  Cl  -2.64391358485057      0.28214721040199      2.05873504590238
  H   -1.34925155584333     -0.00752530654851      1.31969129454051
  H   -0.28394731969448     -0.91668032990771     -0.93518264237115
  C   -0.86447237227722      1.20097927474290     -0.93705381828399
  H   -0.40391396146978      1.38828889633373     -1.90386090742522
  H   -1.94567515499705      1.04054768248467     -1.04860778513328
  H   -0.70413197939603      2.07511947308631     -0.30899417772814
  N   0.72632154582341      0.98436410540446      1.62213805217129
  H   0.07357047137899      1.57220252242108      2.12327354312721
  H   1.19695315492539      1.45832174471145      0.84255358025275
  N   0.49046102067004     -1.37991321311350      1.57289792180747
  H   0.27244254474001     -2.14411299390614      0.94271543928411
  H   1.49380376405959     -1.34321430805406      1.71957995999416
