13
Coordinates from ORCA-job run
  C   -0.01086476518484      0.10285738153552     -0.35190014631953
  C   -0.25159351121738     -0.15850448184400      1.12005265812976
  Br  1.83304592460586      0.91460025655322     -0.57104553729778
  F   -2.73272335495689      0.71223290298484      1.06494206548084
  H   -1.36210076876840     -0.24628213853278      1.25256117727336
  H   0.12685621245668     -0.83301390893724     -0.89364874272696
  H   0.05693698630422      0.68197218028942      1.73676194514732
  N   -1.02666788195906      0.94230172260863     -0.90568390413430
  H   -0.66814088229781      1.84165738919607     -1.18395629954738
  H   -1.79733681077223      1.03048235452641     -0.19409442146991
  N   0.47108748087506     -1.34578192338759      1.61257856461991
  O   1.01174448082492     -1.27647232457674      2.71901793734227
  O   0.46446689008988     -2.36274941041578      0.91481470350240
