14
Coordinates from ORCA-job run
  C   -0.61936376186741      0.06433928838413     -0.05470745612767
  C   -0.18352478392137      0.14727105440323      1.23934005661464
  Cl  1.51372912731985     -0.71687533328470     -1.51015241380071
  Br  -3.02603128497276     -0.13892050489223      2.48040178145025
  H   -1.56481703852088      0.08395089384523      1.58028921949482
  H   -0.87213035581336     -0.92109568225093     -0.42800226634422
  H   0.05599649053739      1.13380124661735      1.64066013421566
  N   0.44265292541388     -0.95782807069151      1.88858445145637
  H   0.82160849479673     -1.57029920639781      1.17435951928668
  H   -0.20559280436953     -1.46068490337349      2.48298369502824
  C   -1.11453147551311      1.23453966760772     -0.82750607696688
  H   -2.21183479999478      1.23894048644587     -0.82337522930377
  H   -0.75675994172018      2.17518206890476     -0.40504635899642
  H   -0.76711079137447      1.15014899468238     -1.85681905600697
