15
Coordinates from ORCA-job run
  C   0.61037265709452     -0.00328711295594      0.08395179684008
  H   1.60220575083091      1.82992072063883      0.59963000753625
  Cl  -1.69671076846061     -0.09580564688884      0.03195218414684
  Cl  2.84910981629853     -0.17077976422767     -0.35672127987024
  C   0.64926979564370      1.50807751294201      0.18134552463068
  H   0.50470763330705     -0.49453004382330     -0.86090030324217
  N   0.76730079660610     -0.90872071297934      1.24148684259487
  O   1.18951157126617     -0.43661747585574      2.29056628859996
  O   0.50518481271484     -2.08810931730843      1.03396021478543
  N   -0.36303117197309      2.15213992364313      1.18860491400646
  O   -0.92850666828464      3.16658440091010      0.78360446253949
  O   -0.43183998562052      1.71814814855292      2.32631242092799
  N   0.46002112419729      2.00854452023083     -1.12944681570267
  H   0.55295140189634      3.01404455949172     -1.13481841704526
  H   -0.48048676551660      1.77135028762971     -1.42523784074771
