16
Coordinates from ORCA-job run
  C   0.53226883096753     -0.02709710666946     -0.23148159183858
  H   0.65976068447459      1.43599115649687     -1.78488124180316
  Cl  -1.44017544117437     -0.14006100893218     -1.10685293010833
  F   2.44118122552916     -0.23436045222021      0.40725562325020
  C   0.86826714341785      1.37899459089783     -0.71903532085752
  H   1.93416737265268      1.50230111777213     -0.55593436268385
  N   1.04786568976383     -1.15876974943122     -1.06268597142298
  O   1.53982017405702     -0.86277270065871     -2.14574322195753
  O   0.90007470444874     -2.30033403849592     -0.64711990755052
  C   0.12684112466628     -0.30956081282354      1.18859731834660
  H   0.93803557841680      0.00818375548817      1.83676670247757
  H   -0.80603665928242      0.19753862575393      1.43204245493545
  H   -0.01763002390396     -1.38228277600235      1.29876508526893
  N   0.13892580931674      2.44100343046966     -0.03843047334323
  H   0.35738736990299      2.40441760946036      0.95025992014656
  H   -0.85263358325350      2.25278835889465     -0.13562208285960
