16
Coordinates from ORCA-job run
  C   0.42492704459871     -0.08074510360407      0.06411683557920
  H   1.71649198035504      1.62622272558271      0.02448839843464
  F   -1.26551271505389      0.02778612061758      0.22802009646278
  H   2.25155609419476     -0.37693141154235     -0.43275334669580
  C   0.64497258273701      1.43824570192619      0.03697765963075
  H   0.33965743849360     -0.60492835539175     -0.86645023709739
  C   0.72305682938575     -0.83484709578406      1.34297330944429
  H   1.58699549177074     -0.43077410894578      1.86768226200117
  H   -0.15750771728835     -0.80126768937352      1.99290232844936
  H   0.95700066224695     -1.87171066117184      1.10117579399098
  C   0.01296656869605      2.16239075920780      1.23328277865965
  H   -1.06463463563390      2.02297935616791      1.22478753863964
  H   0.41269102722606      1.75146952046126      2.16351728654443
  H   0.25485746743377      3.22917095371724      1.19838885944533
  C   0.10207234065663      1.99509267051989     -1.20498947701943
  N   -0.30135045981889      2.49663661761276     -2.18761008646962
