14
Coordinates from ORCA-job run
  C   0.90109013965529     -0.07741986210213      0.04201515930408
  H   1.75819455486158      1.88115548545006      0.36772608360374
  F   -1.61462839061364      0.22537197208918     -0.86943813987778
  Cl  2.40473847033601     -0.40500504838587     -1.04270364136551
  C   0.77683535394584      1.45117737357095      0.12039017874962
  H   0.02188638667445     -0.40667880298726     -0.52842207898756
  N   0.99380791533650     -0.71022095419484      1.27199314289717
  H   1.54664492019787     -0.33773684835980      2.01979874718186
  H   0.44131857545913     -1.52377119939662      1.45084878883602
  C   -0.12201281312459      1.78810271900522      1.25349062969805
  N   -0.78292087551735      2.19156220896640      2.13785868706710
  N   0.30143066010664      1.95765572335231     -1.15245693359563
  H   0.10870908589774      2.94875927198794     -1.05719213493964
  H   -0.59979398321547      1.43279796100447     -1.27431848857150
