18
Coordinates from ORCA-job run
  C   -0.13223006662681      0.01662804554460     -0.37058763575846
  C   -0.17234120985063     -0.01851933574940      1.11135553684271
  Br  1.82157164204999      0.20701855989768     -1.10850872600925
  H   -2.34323722378900     -0.59793245126503      2.15772100711200
  H   -1.34838755934084     -0.06895243566941      1.41097111340992
  N   -0.68277410673592     -1.11845923860210     -1.01567478435228
  H   -1.69294269104770     -1.04968218916732     -0.90804391025768
  H   -0.36675642383754     -1.89039546674187     -0.42987664996962
  N   -0.85837137759504      1.26156189458015     -0.86411882195702
  O   -0.31099199679699      2.35344489210993     -0.75471053483141
  O   -2.00780798254920      1.09188912919266     -1.27207492904122
  N   0.22000046743864     -1.34479655219794      1.55880778702479
  H   -0.52551144905460     -1.62923774368427      2.20736345377078
  H   1.10296279276533     -1.30684865546172      2.05440775288515
  C   0.45889798764270      1.10981146773899      1.89070166602092
  H   0.12328856981959      1.01733973831593      2.92953156703856
  H   1.55406092751195      1.04848766504219      1.86112027383743
  H   0.16947969999606      2.09478267611694      1.52219583423468
