12
Coordinates from ORCA-job run
  C   -0.21618774702976      0.06866576378188     -0.33172810059262
  C   0.18384725881538      0.17540496449783      1.09556961719115
  Br  1.03626640270034     -1.18789673271491     -1.20752253285207
  H   -1.38998323245883     -1.43379509050940      0.90005383805101
  H   -0.67171607834568     -0.96148311537682      1.38222639781429
  H   1.20943164180610     -0.08671559809317      1.33300802280174
  C   -0.21000891304470      1.30134654341866     -1.09134984815431
  N   -0.21267748404835      2.30439939334851     -1.70749898338464
  C   -0.32876301623912      1.30262012300687      1.80159541521432
  N   -0.77565765921627      2.19481235793852      2.43287508294379
  C   -1.64655942189797     -0.62801461236736     -0.49920802065680
  N   -2.59558175104116     -0.61013399693064     -1.22207088837585
