10
Coordinates from ORCA-job run
  C   -0.09372881894795     -0.08421399455598     -0.39827786799170
  C   0.17005366042859      0.06026526887164      1.08730427234120
  Br  0.67329941310120      1.42511484079086     -1.39636472191702
  H   -2.31867030211114     -0.31669900259375      1.15354956927084
  H   -0.31399195595411      0.96993577394431      1.44437806343628
  H   0.36751432585174     -0.98069212479224     -0.81273485365766
  H   1.24952741792603      0.08606819882565      1.28840226340351
  C   -0.43371267392386     -1.08845900767241      1.79825731242103
  N   -0.32001364161968     -2.08565910985740      2.43310315022668
  H   -1.17788742475082     -0.07857084296066     -0.53273718753316
