17
Coordinates from ORCA-job run
  C   0.30218291443272     -0.09180947798736      0.21609391168101
  H   1.68634465176889      1.39295713030537      0.18793753010050
  Br  -1.76210915028341     -0.38554953342442     -0.01207315082309
  Cl  2.73925412346377     -0.50954826616956     -2.07880078016884
  C   0.59110045967521      1.39578952806947      0.13816973877310
  H   0.71401149105804     -0.58648666313100     -0.66365445194502
  N   0.75615964541589     -0.70325994792363      1.39402607932976
  H   0.23116850884723     -0.42572702220736      2.21121247992530
  H   0.76661982806518     -1.70961320552631      1.31122252784105
  C   0.04740978666449      2.18749492546747      1.32303409222166
  H   -1.04526175159246      2.15232121684466      1.34460319410781
  H   0.43210401753472      1.81276304355513      2.27655082284871
  H   0.35275289100860      3.23469979992609      1.24088277262135
  C   0.18279928644105      1.99926197888165     -1.21574928604320
  H   1.07030262937984      2.23610200342175     -1.80249677967777
  H   -0.40600546962972      1.29943735772957     -1.80806941545020
  H   -0.41765386225004      2.90491713216850     -1.08013928534215
