11
Coordinates from ORCA-job run
  C   -0.31151715196086     -0.00488069899984     -0.19748726357674
  C   -0.14430186084640     -0.15631744936597      1.22245621543324
  Cl  1.36658836807607      0.29126410143362     -1.26561203998734
  F   -2.53197544072835      0.47219409118950      1.72888744191426
  H   -1.48068549365392     -0.03203391714693      1.53107198589341
  H   -0.85133215307103      0.89880949763158     -0.47113625158102
  H   0.33687778117568     -1.09553643396331      1.51051168140099
  N   0.39946421757424      0.98620527966481      1.95319165571306
  H   -0.36501305986894      1.63914652134948      2.08536115516367
  H   1.11241084633306      1.44578502177795      1.39329945457800
  H   -0.70707605302955     -0.88514601357088     -0.70222403495152
