16
Coordinates from ORCA-job run
  C   0.96840461096266     -0.00072249671394      0.02321312475133
  H   1.70371851992558      1.97852965570465      0.08279981661704
  F   -1.39944106639973      0.09107146082847     -0.04258664294934
  F   2.32992334530564     -0.20142121729713     -0.24573025090959
  C   0.71443534948895      1.50261857059816      0.11712046405674
  H   0.35304949220842     -0.48319334175548     -0.71651770114951
  N   0.77925826128268     -0.76913557579525      1.29602713239580
  O   1.19369481375766     -0.26344922822213      2.34093395762104
  O   0.36553991302617     -1.91794116686558      1.19310948516181
  C   -0.10671398997675      2.05757639634770      1.26151962935076
  H   -1.04754374722421      1.50679807037987      1.23518061229226
  H   0.42683571263541      1.91415144026004      2.19868405486159
  H   -0.26879033528846      3.12306591636975      1.09896622377677
  N   0.10962398998110      1.90397032532751     -1.21232799605810
  O   -0.64352665613133      2.86907104821338     -1.24698813595113
  O   0.51970178644620      1.31094014261993     -2.20720377386745
