20
Coordinates from ORCA-job run
  C   -0.22613232234646     -0.03598031036565     -0.31790660239738
  C   -0.12619489357927     -0.04103928028443      1.12892483983399
  Cl  1.67374112234421      0.05555842453262     -1.18439333508307
  H   -2.57480728792413      0.32546822425810      1.37367447421471
  H   -1.40484585293890      0.04902099545074      1.33651220869298
  N   -0.89759569149032      1.10310948774169     -0.88298928341731
  H   -0.40523133574192      1.94114662193822     -0.59501723535384
  H   -1.80202055654075      1.11255344069169     -0.37849704010574
  C   0.40461164827315      1.23058105303487      1.75685075425226
  H   -0.26164196924488      2.07725949432613      1.55971187700937
  H   0.44944937510336      1.11924677410065      2.84536465465520
  H   1.40971570855271      1.47815857253262      1.39208826027317
  C   0.42209957429423     -1.30003814014091      1.76545209719534
  H   1.44988155090551     -1.50526616373456      1.43549009147110
  H   0.42984343734755     -1.19830715605048      2.85628112083557
  H   -0.19116073172316     -2.17528255410133      1.53248432012607
  C   -0.80337172463655     -1.28908364770090     -0.92108093358623
  H   -1.80980611092138     -1.41268634026214     -0.49190982698922
  H   -0.88357055573937     -1.16205379773981     -2.00024005813864
  H   -0.20344338399363     -2.17140569822713     -0.70236038348833
