12
Coordinates from ORCA-job run
  C   -0.23023608144211      0.03090074078382     -0.28235404474550
  C   -0.17091878756695      0.16287905704112      1.20365424293970
  Br  1.47074208188535     -0.36356555918430     -1.15602485274660
  H   -2.63500350978283     -0.55904339937903      1.07448729617241
  H   -1.32770630007514      0.08342841294498      1.42890190897782
  H   0.21756265103458     -0.77845939946276      1.60448507935257
  N   -0.81945024132925      1.24243406620749     -0.96503034566271
  O   -0.97641458790049      2.26064762424249     -0.30089598055291
  O   -1.12672684018660      1.10260496549033     -2.14458686389723
  C   0.57891571188748      1.26997233829009      1.74833851497750
  N   1.19339039857816      2.12695245762412      2.27138185862111
  H   -0.93496449510219     -0.77523130459834     -0.51166681343613
