14
Coordinates from ORCA-job run
  C   0.52657234969177     -0.02263279069022      0.01874254729465
  H   1.87033412487111      1.59862358444308     -0.11278811035308
  F   -1.26637113456913      0.22798774562010      0.08202703879323
  F   2.35431841320817     -0.49523122830551     -0.28224437635867
  C   0.79399623809356      1.45877960515387     -0.04464650568041
  H   0.38245573630390     -0.55851074631309     -0.89959323471724
  H   0.42618568677542      1.88705856082053      0.90257347878600
  C   0.60750263904385     -0.72695719851122      1.34598733544803
  H   1.47903072282701     -0.35882280085124      1.88813738341366
  H   -0.30517846296894     -0.55623642336234      1.91700290943539
  H   0.75654377904436     -1.79494415675275      1.18773711875489
  N   0.12713008919708      2.04761546410150     -1.21378578933575
  H   0.14770743685693      3.05797381911558     -1.12301541351684
  H   -0.83470761837511      1.74208656553173     -1.10087438196387
