17
Coordinates from ORCA-job run
  C   -0.25747869476085      0.02049446748049     -0.32517930147137
  C   -0.26268095893622      0.07266728397697      1.13422735381060
  Cl  1.59635658146415     -0.07784838968273     -1.06560516256230
  H   -2.62324418934815     -0.66636706828243      1.47639635098215
  H   -1.49299623173802     -0.12906261092253      1.33554968777788
  N   -0.94978933987557     -1.10147451693595     -0.90448538253559
  H   -1.81331107975459     -1.18073240121916     -0.33822146835765
  H   -0.40377829398006     -1.93443682438962     -0.71693823540239
  N   0.14618466364669      1.36231992417566      1.64955974311513
  H   1.14314649853257      1.36496598568820      1.84728065966679
  H   -0.34748015052630      1.54343046248612      2.51698052331300
  C   0.33855903613279     -1.13140334308051      1.82781229759361
  H   1.41897098869752     -1.20530780985937      1.65245318339808
  H   0.15581092185531     -1.03965359389201      2.90367428804978
  H   -0.14252820789744     -2.06004543713883      1.50868590119787
  C   -0.75896477780657      1.26472959006159     -0.91728349644101
  N   -1.20963676570525      2.22661428153411     -1.42013694213458
