12
Coordinates from ORCA-job run
  C   -0.09555237195142      0.03085267979725     -0.33521458028462
  C   -0.16246117601313      0.13355604131667      1.12289032439661
  F   1.24552457746242     -0.07164230428678     -0.90157906768338
  H   -2.38151713644008     -0.44706638570399      1.99103198644496
  H   -1.44080788196559      0.00085623072434      1.50245179380176
  H   0.21428775642538      1.10583519501069      1.46153192656177
  C   -0.78052073306869     -1.17494421637708     -0.83784183321558
  N   -1.31704983067349     -2.14336661169134     -1.22979134304029
  N   0.38561935744634     -0.98417500752332      1.86728347508966
  H   1.02310657523939     -1.53797201155711      1.30952295003555
  H   -0.40508953951639     -1.57040019473255      2.14789353277699
  H   -0.51880959694475      0.91739658502324     -0.82031916488342
