18
Coordinates from ORCA-job run
  C   -0.19956491605243     -0.02870890557288     -0.33735303018876
  C   -0.20224722686838      0.02469086343472      1.10842793415526
  Cl  1.69953767361267     -0.15476442000460     -1.12784211745757
  H   -2.69257207134015      0.24982599176712      1.43261908026872
  H   -1.46659730934249      0.08972062113116      1.31802621671439
  H   0.12539839635897     -0.91746271234044      1.55911857975924
  C   -0.86897859648851     -1.27631904181620     -0.85339940698435
  H   -0.39602229989971     -2.17131153964660     -0.44381214184658
  H   -1.91263017318243     -1.23501619446939     -0.50499724280227
  H   -0.84351133678826     -1.33119731559684     -1.94415246526955
  C   -0.75264955583665      1.21698649094165     -0.97844312640437
  H   -0.80032012595376      1.11981513142492     -2.06545809434006
  H   -1.76685684739161      1.34630627376483     -0.56653636617150
  H   -0.15708790351118      2.09731351342909     -0.73471849232529
  C   0.38611245110398      1.24636385876452      1.78202132787350
  H   -0.26759342316537      2.11591496534168      1.64942921911819
  H   0.47034730319143      1.07931235714766      2.86069938842339
  H   1.38208596155390      1.49590006229961      1.39643073747761
