13
Coordinates from ORCA-job run
  C   -0.55495610042882      0.02628925463290     -0.11733134360038
  C   -0.35069477131304      0.30536100990475      1.25561364934090
  Br  1.85955022249746     -0.53181704020954     -1.22130879595445
  F   -2.29319113877391     -1.14607314225014      1.91163843480014
  H   -1.47915272699442     -0.23890682072845      1.73891558192727
  H   -0.04489933808048      1.32516496100211      1.45507254173719
  H   0.31251365863365     -0.43151096130311      1.70473712051211
  N   -0.63431181822067      1.16461395580166     -1.10839308554776
  O   -0.24263164403399      2.26502814345255     -0.73911583496947
  O   -1.14944015978132      0.91988505840824     -2.19650339862009
  N   -1.24307273641904     -1.03262453408643     -0.49436863228220
  H   -1.66015881599473     -1.57033388342395      0.26850449530846
  H   -1.32901463109066     -1.25730600120059     -1.46964073265172
