17
Coordinates from ORCA-job run
  C   -0.84664119560407      0.18223891165134     -0.31120336111423
  C   -0.04897603658043     -0.04358097658482      0.86836720798640
  Br  3.94725320265634     -0.47539531305384      0.46980822262687
  H   -2.12951012202669      0.53473160327296      1.75547122024670
  H   -1.13929587307388     -0.03096788495815      1.58572673584797
  C   -1.11600429898830     -0.92920872036001     -1.18641954089637
  N   -1.35562235522187     -1.80211715276174     -1.94283808932693
  N   -1.70286927084996      1.23065053398346     -0.27206409909444
  H   -2.43229819416566      1.12476690333704     -0.97846460139661
  H   -2.22271113323864      1.05766066436379      0.90663427284763
  C   0.64976363195904      1.15812974641850      1.47419722631990
  H   1.62785088006185      1.25539166540836      0.99557350610455
  H   0.05884060391824      2.06262341594094      1.33175753681536
  H   0.81445967445614      0.98434874953596      2.53955395791339
  N   0.65971461200398     -1.24677165609964      1.07066838658234
  H   0.38197688304217     -1.98275098962148      0.43330156237167
  H   1.67139899165171     -1.09133950047268      0.99087985616581
