19
Coordinates from ORCA-job run
  C   -0.66615439492660      0.15386427384196     -0.08292659852834
  C   0.26268472508234      0.18151055562155      0.92414862927593
  F   2.27897699545993     -1.74903552926274     -0.38931430808963
  Cl  -2.75607525911070     -0.03257848880513      2.19408866098999
  H   -1.59663603236979     -0.03799821172757      1.41368055826386
  C   -0.87241627744088     -1.10686202901949     -0.87294043561909
  H   -1.63993934910983     -1.76637789927739     -0.44490761924342
  H   -1.18121712330663     -0.84769883782296     -1.89017962632590
  H   0.08422718616837     -1.63687925153767     -0.91609661486676
  C   0.70402753005232      1.48718338144428      1.53115594164458
  H   0.79933341608735      2.28972125058928      0.79196602833838
  H   0.01262957244799      1.81705603415606      2.31891844271179
  H   1.67358917282759      1.31828363534421      2.00106687953505
  N   0.87665522784546     -0.95770619272212      1.44920436170894
  H   1.69105214240913     -1.28689293831171      0.65275674007204
  H   0.22944421915904     -1.73702687886097      1.35511550228578
  N   -1.29093097389997      1.32860203170090     -0.60568375028042
  H   -2.26985986139842      1.13495954924575     -0.79279014440770
  H   -1.26043091597670      2.07942554540379      0.07363735253494
