16
Coordinates from ORCA-job run
  C   -0.10459127311723      0.05173982399082     -0.39842831032795
  C   -0.18250619955162      0.04468615646834      1.06821663947931
  F   1.25796188819084      0.02477008389188     -0.95419537409264
  H   -2.54643734008074     -0.49520973579350      1.55391498159188
  H   -1.52427435736562     -0.09835426800636      1.33718035994910
  H   0.19889639689637      0.97433484445181      1.50013320159224
  C   -0.65580840399384      1.31670198947837     -0.92240824381006
  N   -1.09198356729074      2.32183649304617     -1.34790257211376
  C   0.34618450768590     -1.21138969914118      1.73262972783182
  H   1.23450867024707     -1.63881473844688      1.25040558582265
  H   0.60816434903504     -0.99896907056967      2.77426806842817
  H   -0.44342109502172     -1.97884557469644      1.76108710882744
  C   -0.81155425958046     -1.13427820793248     -1.02795338963598
  H   -0.26584970021985     -2.04396752014252     -0.77128182183233
  H   -1.82281971671374     -1.20240424664533     -0.61117287384764
  H   -0.84401989911966     -1.03905632995303     -2.11583308786223
