14
Coordinates from ORCA-job run
  C   -0.38569762695454      0.05592963630762     -0.30014898893164
  C   -0.38763814649853      0.09395562617640      1.10074211454010
  Br  1.88501940776929     -0.00056760286080     -1.10702804938725
  Cl  -2.97825066046779      0.06345101533482      2.39940021531612
  H   -1.66978162445644      0.06080430020776      1.48185840462808
  H   -0.08326189271232     -0.85222141399837      1.55731203401959
  N   -0.84946791804352     -1.22599582922796     -0.90253598694957
  O   -1.40733417898701     -1.16480357763042     -1.99533630508119
  O   -0.64926234191622     -2.25031236285023     -0.25673399911015
  N   0.10000786020088      1.32802510668226      1.63088848424289
  H   1.09669678030390      1.39852770824302      1.44306444887463
  H   -0.07657886873305      1.37746633748071      2.62520618129770
  C   -0.82180903155112      1.21469230770572     -1.02729394356846
  N   -1.21563175795354      2.16729874842948     -1.59687460989084
