16
Coordinates from ORCA-job run
  C   0.74014375818130      0.03584425291748      0.08517039383265
  H   1.70272226257386      1.97308472603087     -0.05909771333328
  F   -1.29127574058064      0.18526565682899      0.13829324754339
  Br  3.00306989854369     -0.31859242971376     -0.41358834462840
  C   0.69459627898820      1.56403510044499      0.02750806664804
  H   0.45833662667315     -0.51822878890783     -0.78878743301691
  C   0.75543168364336     -0.63348817873389      1.43543269055887
  H   0.99816098780803     -1.68910473752856      1.31344851272712
  H   1.51182186286203     -0.19654564884663      2.09014509794309
  H   -0.23633187337419     -0.53795587795605      1.86978559849395
  N   0.00318005116481      2.21181908493995      1.09964137469064
  H   0.56030026506720      2.12179068661108      1.94011107201451
  H   -0.85801188814991      1.67156672416214      1.18642490080850
  N   0.03494757636324      1.94715732981317     -1.28983040631727
  O   -0.77841134490356      2.86024221139290     -1.30524314920835
  O   0.42666963006991      1.33947991009536     -2.28280418870227
