17
Coordinates from ORCA-job run
  C   -0.48406251142042      0.10133412344054     -0.23165186843710
  C   -0.07225461971904      0.14549309283943      1.07218402815312
  F   1.62218754592396     -0.78971058769360     -0.90037013243190
  Cl  -2.73816008584740     -0.20243654700512      2.37218437710035
  H   -1.47955448651375      0.03888918118351      1.57469634388051
  H   0.19355293492380      1.12739340071055      1.47173155566911
  C   -0.94637623818924     -1.15227142041851     -0.89201121749810
  H   -0.72713115797872     -2.02529128551433     -0.28220856224892
  H   -2.03006015874525     -1.09193570737653     -1.06889191084412
  H   -0.40643916734451     -1.25957983243741     -1.82980051425374
  C   -0.65006850874780      1.35549675314654     -1.02013500908439
  H   0.20268008205746      1.34760065492508     -1.70755271889017
  H   -1.57648457162660      1.37495710810542     -1.60279268236148
  H   -0.58836081212487      2.24874038545991     -0.39313630355093
  N   0.64586272184378     -0.96212764146509      1.63257671978396
  H   1.20209307677576     -1.25449184507235      0.80695359935035
  H   0.02445595673281     -1.70308983282807      1.93463429566346
