17
Coordinates from ORCA-job run
  C   0.84435405763839     -0.05516981901295     -0.26785786076415
  H   1.58231113873281      1.84171434803408     -0.74893688388684
  Br  -2.85248102183661      0.41419040034749      1.55726516901841
  H   2.51085831536913     -0.05934367620842      0.31608661423704
  C   0.70173499493963      1.44673596252344     -0.22892819652767
  C   2.07728131173192     -0.68053671073409     -0.74478982553917
  N   2.65952073318638     -1.45718489190603     -1.46277067977838
  N   -0.08025139529263     -0.80638499815631      0.28791471583869
  H   -0.89037124168402     -0.42497601712643      0.80322882845640
  H   -0.08711247189563     -1.79095772760842      0.06080695558234
  C   0.65187464888076      2.02856791999952      1.18839639282812
  H   -0.24538506735351      1.68569990788338      1.70821697086259
  H   1.54021418984630      1.74674466928696      1.75947131474074
  H   0.60664328399784      3.12177314414877      1.12810321424959
  N   -0.48472794829473      1.75802486025683     -1.04058538580863
  H   -0.54041239186496      2.76719674608822     -1.13366550620802
  H   -1.31296113610115      1.47421588218391     -0.51818583730108
