14
Coordinates from ORCA-job run
  C   0.31641894190652     -0.17992808359577     -0.62605350917431
  H   1.75347214776779      1.41788641779608     -0.52552299944928
  Cl  -2.12726506495662      0.23906042795235      0.28826679506074
  H   2.23683051965371      1.50720714001339      2.77496080912116
  C   0.68079114629475      1.24989681143578     -0.37878987469795
  H   0.41552540482332     -0.87503819685572      0.19945347246786
  C   0.35257213039446     -0.65112625663307     -1.93846700432734
  N   0.37302853615686     -1.07152636928189     -3.04916232245213
  N   0.63327553704318      1.54300626535321      1.17827985776708
  O   0.28466395593349      2.64539882303406      1.55627206172166
  O   1.22876326951427      0.70625574107240      1.91046597712624
  N   -0.07798331053263      2.15202088713023     -1.14046338066901
  H   0.12251468899110      3.11043423569828     -0.88684244687587
  H   -1.05914790299021      1.93676215688061     -0.97678743561880
