16
Coordinates from ORCA-job run
  C   -0.37680505703538     -0.03511811955230     -0.30262570645270
  C   -0.14138430042389      0.05786175980440      1.20378206654622
  Br  1.45849598329423     -0.21846415916210     -1.19621863191854
  F   -2.75876287224989     -0.03249825131083      0.66257013722606
  H   -1.19003426714225      0.06872688013506      1.54686871092963
  H   0.34742722878562     -0.86447515777741      1.53539984055305
  C   -1.02979278246584     -1.29999177710334     -0.64329242722596
  N   -1.38220088927666     -2.35928385970045     -1.01432372211049
  C   0.65690612830881      1.26827827016163      1.66562609550835
  H   0.17147038051269      2.20525363470577      1.38327787306823
  H   0.73045261196432      1.25957187500506      2.75767625227078
  H   1.67173670487646      1.27472843510271      1.25898356926805
  C   -1.09334052945337      1.17073644239034     -0.93352259233637
  H   -2.06044898589149      0.84288772980539     -1.29995107749063
  H   -1.31581943116182      1.89665511457016     -0.15553716546384
  H   -0.49364992264153      1.62999118292588     -1.72149322237185
