18
Coordinates from ORCA-job run
  C   -0.15963035069158      0.03615947791181     -0.37846013103182
  C   -0.19637119097063      0.08140562057362      1.13204179675786
  Cl  1.60278252254737     -0.03223535508426     -1.00374514537101
  H   -2.63518611309217     -0.47789566730440      1.19143065938893
  H   -1.44213131380031     -0.02832973938782      1.27948812866645
  N   -0.82308678808576     -1.13648710896669     -0.90904747667601
  H   -1.72814904072824     -1.14948251351493     -0.41343687749507
  H   -0.31792967239743     -1.95859349304862     -0.59341728344761
  C   -0.79655459048220      1.26945639809313     -0.98087097992339
  H   -0.78937307761350      1.18541823622362     -2.06826745262372
  H   -1.83213679246254      1.30419540107575     -0.62343582955834
  H   -0.27701153892157      2.17732244196077     -0.67191451677211
  C   0.33016585504194     -1.15707551133876      1.83905000744965
  H   1.30419058797749     -1.47920421537071      1.45568689132101
  H   0.42787882908392     -0.96460973750676      2.91045442951412
  H   -0.39816195612583     -1.96779759815557      1.72271122815233
  C   0.29712180049345      1.30684793002678      1.69411042838187
  N   0.66832283022759      2.31705543381305      2.17895212326687
