18
Coordinates from ORCA-job run
  C   -0.12200288240747     -0.01005700117411     -0.37261495291579
  C   -0.25470115825888      0.01240964118817      1.09550934328731
  Cl  1.56153044621919     -0.22939328097440     -1.01564759791817
  H   -2.22413875288690      0.19424192376759      2.51851377340945
  H   -1.39934633103246     -0.06831206538573      1.48045973933426
  N   -0.93361732828929     -1.11297400850888     -1.06722242181844
  O   -1.05642086843627     -1.00682940009813     -2.28352423636213
  O   -1.40385964186553     -2.00383190559432     -0.37096440527789
  N   0.05948965815380      1.34412218784626      1.57275117088571
  H   0.98045041092356      1.36898697358110      1.99566670363786
  H   -0.64589227034750      1.50924916544959      2.30405307216303
  C   0.47393915683986     -1.10077275238404      1.81840661692779
  H   1.54743253791778     -0.88964885583880      1.90350191177001
  H   0.03585506448058     -1.14761276225309      2.82201486232499
  H   0.34694382611003     -2.07414831706112      1.34164430643406
  N   -0.70659489358388      1.27889503976483     -0.95250446371414
  O   0.03286715610130      2.11991139155955     -1.43101131612303
  O   -1.92469412963790      1.34287402611551     -0.84590210604488
