11
Coordinates from ORCA-job run
  C   0.66465247046849     -0.01146529595015      0.01592597497600
  H   1.59329809635923      1.79320958873959     -0.64010852547807
  F   -1.27883912168288      0.08311720272401     -0.42489460690553
  Cl  2.63003403143610     -0.48401385013996      0.57181663141800
  C   0.76057087758262      1.48277613186088     -0.01203044470127
  H   0.20592643225004     -0.57339729402459      0.80250459741538
  H   0.94107034590246      1.83732774785613      1.00434615259593
  H   -0.18076492350136      1.86592102459602     -0.39049177721366
  N   0.66347967392391     -0.72919905626345     -1.27585199997232
  O   0.91949368545698     -0.07802720378513     -2.28518261022104
  O   0.45317843180438     -1.93485899561336     -1.24609339191342
