13
Coordinates from ORCA-job run
  C   0.23408606738524      0.28801576812228     -0.47809819073527
  C   -0.24575438566777      0.14899901289047      1.00359315202633
  F   1.16866379776423      1.28771222925374     -0.64018960479348
  H   -2.04322397509136      1.46539355476842      2.54900786037294
  H   -1.33719579082325      0.39216647381202      1.09718024942876
  H   0.70680108930200     -0.64017226823580     -0.81621142269378
  N   0.36540125314558      1.09730475244789      1.89582067032601
  H   1.03248701056202      0.64791826049182      2.51012472652198
  H   -0.48192092682760      1.44184177524507      2.43950627463597
  C   -0.07941763471448     -1.25628346445815      1.39242194100983
  N   0.08848227470370     -2.38303091286439      1.68693195568910
  C   -0.89054989872992      0.56442192175338     -1.39053323175110
  N   -1.77363888100842      0.74523289677325     -2.14250438003733
