13
Coordinates from ORCA-job run
  C   -0.57999024770797      0.42229254351564     -0.42422669743992
  C   -0.06517103618041      0.39037285822933      0.88432659671471
  Br  1.68600697736446     -2.62154225069938     -0.07228208074693
  H   -1.77022363987768     -1.13229344136196      0.92625473413911
  H   -1.11647431259925     -0.35704952474635      1.29510172918996
  H   0.06136366401500      1.32453177617295      1.42467310085764
  H   0.67951116403064     -0.39144726938172      1.04739605672424
  N   -0.94445992351430     -0.70028326253352     -1.03932830786265
  H   -1.70050739857640     -1.13146861779255     -0.16629763058703
  H   -0.18611319849171     -1.39228032982171     -0.87184336424147
  N   -1.42428324163134      1.61074085925004     -0.73233185591416
  O   -0.96158997116097      2.71531218425904     -0.43545498892081
  O   -2.52421883567010      1.42485447491017     -1.24880729191267
