16
Coordinates from ORCA-job run
  C   0.57911199545777     -0.00138988119209     -0.02338427162660
  H   1.59563509105042      1.86845399810190     -0.36536479302617
  Br  -1.66988596181956     -0.35074847322983      0.31963339322263
  H   2.31597612271127     -0.01866743575538      0.33599819718657
  C   0.57984373877240      1.54892089606715     -0.11382295841326
  C   0.75898184742345     -0.77539563077250     -1.32167517978300
  H   -0.04100771812501     -0.49847226754369     -2.00883226889279
  H   1.71948542347949     -0.57240033135406     -1.79914937114924
  H   0.67726868474324     -1.84431053916550     -1.11368318217979
  C   1.24372370508440     -0.48760912186615      1.17352254237283
  N   1.31138415527294     -0.93348094919671      2.28173639982336
  N   0.20385558782778      2.23614303630439      1.11424726644142
  H   0.86867611365978      1.94218012396299      1.82499115834936
  H   -0.69204170063887      1.84750243122125      1.39741796223728
  C   -0.24989765231361      2.01629312958336     -1.23320198917513
  N   -0.82952943258589      2.44614101483488     -2.16026290538743
