15
Coordinates from ORCA-job run
  C   0.78564594368559     -0.02984464024738      0.08419123961336
  H   1.72074762415925      1.68166725098767     -0.67611787346347
  F   -0.98957570130211     -0.49798500834957     -0.83345609938755
  Cl  2.73446686656284     -0.19140177391387      0.91098045227131
  C   0.77567724316788      1.48057472023641     -0.14894898444054
  H   1.00918154686275     -0.67740257608747     -0.74065597801662
  C   0.03534252190396     -0.58949662958533      1.18251774316071
  N   -0.46687303519809     -1.02859606741246      2.15141424065975
  N   0.71419630601063      2.16073652653954      1.14604670537071
  H   0.77573629055155      3.15929490281834      0.98316732780096
  H   1.52284611940439      1.88680343316804      1.69286805878452
  C   -0.36578094066701      1.98871087574606     -1.01431068728474
  H   -0.37705090900867      1.48464648397032     -1.97721620058093
  H   -1.31676996569403      1.78476005825481     -0.53201062480781
  H   -0.23053991043895      3.07020244387493     -1.16042931967966
