14
Coordinates from ORCA-job run
  C   -0.15278551711455     -0.09967931106888     -0.30958149387522
  C   -0.25087462076120     -0.07013275104408      1.17057455518521
  Br  1.69233999028243     -0.14151743393753     -1.03986830957949
  H   -2.81294791988196      0.95284802156571      1.58729282401363
  H   -1.36644372589439      0.03843471581674      1.35749259850852
  H   -0.63480472527408      0.75583126638319     -0.77904118837985
  H   0.12857059879938     -1.00282113510597      1.59066762563516
  C   0.37614966287788      1.18304950667706      1.78409480456974
  H   -0.42194840298582      1.73149904719899      2.29587533355356
  H   1.17258325768889      0.93655130328043      2.49094925586285
  H   0.80901196497473      1.85044445982817      1.03333475332879
  N   -0.82787216211110     -1.30972812826806     -0.89858119782231
  O   -1.51494740751922     -1.12315038743743     -1.90066083697630
  O   -0.64389099308101     -2.39288917388832     -0.35287872402427
