12
Coordinates from ORCA-job run
  C   1.01129667749178     -0.02441777861656      0.07619769048297
  H   1.39798281626925      1.86521420013208     -0.86121607429213
  F   -1.17130042955286      0.27505675026102      1.14925585665904
  Cl  2.72363813766381     -0.12767151304209      0.60130062325568
  C   0.67729644102330      1.43474547766075     -0.16025339790285
  H   0.71395948544862      1.95813187021125      0.79211944511005
  H   -0.34190165821859      1.49213865144076     -0.53048843783946
  N   0.91361272082928     -0.68981487920864     -1.31102434402834
  O   1.88247990922968     -0.63862929657540     -2.06188366124863
  O   -0.18737921756493     -1.13958425116361     -1.60476354336357
  C   0.16865567067366     -0.82479608447080      1.02891278527452
  N   0.23176944670699     -1.87174314662877      1.59143305789274
