14
Coordinates from ORCA-job run
  C   -0.30607581361833      0.17425019370160     -0.07744843635944
  C   0.15219988720264     -0.04203015948278      1.21954340963037
  F   0.96236130430995      0.45505259079511     -1.86835149438311
  Br  -3.34460519695740     -0.11415304904245      2.33175268571953
  H   -2.01365870946300     -0.12931227790347      1.76930552406039
  C   -0.59634397009162     -0.98083957181113     -0.88735525583931
  N   -0.97191786756515     -1.97284579021691     -1.40015455812587
  C   0.43399734802416      1.07921696518913      2.05085557210569
  N   0.63339345894236      2.03213846197234      2.71521623946218
  C   0.52680791401198     -1.33084195826279      1.69424777497212
  N   0.83146417391506     -2.38217055764005      2.12910260674617
  N   -0.81672563482484      1.36496179812298     -0.50724705550547
  H   -0.55365885258953      2.13304042630769      0.09964660786159
  H   -0.37270804129626      1.43542292827069     -1.44371362034485
