17
Coordinates from ORCA-job run
  C   0.54597939601904      0.02065311882521      0.09840269190539
  H   1.97218268829940      1.50523424395379      0.46026485178819
  Br  -1.34599693783591     -3.27682303861655      0.31343506567723
  H   2.93330432268479     -0.09691284142553     -0.37782771760806
  C   0.94112321614632      1.48178429378464      0.10537361621096
  N   -0.39827098635934     -0.37519215591843     -0.72104413781622
  H   -0.67582190612192      0.20907890284159     -1.49313721273838
  H   -0.76259271056067     -1.34147500251434     -0.63916668390986
  N   0.85955610793093     -0.71478403001545      1.17928444906285
  H   1.86966187359856     -0.67341314394176      1.29781178079083
  H   0.46961592282251     -1.65838624482621      1.16297893632972
  C   -0.03539524540820      2.26390705667543      1.00675099992013
  H   -1.05123192762890      2.24425672295898      0.60701336270403
  H   -0.04182512825007      1.81188935929693      1.99925125271242
  H   0.28828322179466      3.30375984114038      1.08677193188987
  C   0.93394082338052      2.03231025145933     -1.24820457875055
  N   0.81810726948828      2.51943266632200     -2.31068860816850
