13
Coordinates from ORCA-job run
  C   0.28694377666770     -0.00854009922172     -0.12914008874402
  H   1.76463901496501      1.34678794608127     -0.86658092548862
  Br  -1.72564058644118     -0.02013037892719     -0.05736497899558
  H   2.56360834171388     -0.17450045434648      0.74185961963704
  C   0.82174456191331      1.39270364790380     -0.33252934630222
  H   0.65644586886966     -0.42845191764954      0.79838655161968
  H   0.97607331553326      1.85414063004940      0.63794207730766
  N   0.68006469505170     -0.97978583888331     -1.20928689958342
  O   1.17526953995324     -0.54309410126629     -2.24265109304836
  O   0.44415912583572     -2.15924869518053     -0.97356163383356
  N   -0.08850348017366      2.29469689266251     -1.10973977804650
  O   -0.44617230465327      3.33730230928141     -0.55564420501475
  O   -0.37422186923537      1.98275005949668     -2.26263929950736
