15
Coordinates from ORCA-job run
  C   -0.11175708368649     -0.01165624005747     -0.41969508581836
  C   -0.10163079728104      0.02824290679086      1.03566765408336
  F   1.20198452661189     -0.05375182769405     -1.07639583793513
  H   -2.27717062403178      0.07003242430903      2.18942765698544
  H   -1.42153240484887      0.05394706242303      1.54938507250537
  H   -0.58147995685533      0.88232685751491     -0.84954310740066
  C   0.44103164441440      1.29245942585312      1.65222538267021
  H   0.12453755052516      2.17645280893128      1.08314252464363
  H   0.03081575125816      1.40332461114599      2.66996430404619
  H   1.54069991429012      1.32393060069808      1.72711259726129
  C   0.41133282953787     -1.21398870630517      1.71852121489586
  H   1.51049356563922     -1.27579544755302      1.77868498197096
  H   0.01404917633830     -1.25190857774129      2.74640710936534
  H   0.05758124660095     -2.11911097431446      1.20748576356723
  H   -0.61375533851257     -0.91062492400084     -0.80001023084073
