12
Coordinates from ORCA-job run
  C   -0.16170680931655     -0.03749497015699     -0.26737909547191
  C   -0.73621404688641      0.43606528797063      1.03823019302529
  Cl  1.37511347374651     -0.89983291122971     -0.03517890938378
  H   -2.08550659147972     -1.75190079496362      2.07284822421961
  H   -1.19886641394219     -0.46935778413297      1.57144930383898
  H   -1.54457072474575      1.14205355913982      0.83371932989362
  H   0.03342783602592      0.90162952238037      1.65406469167741
  C   0.05311017052260      1.00334260325217     -1.27266946302000
  N   0.26279152160395      1.87388421234318     -2.03518405773930
  N   -1.21459573979082     -1.02173929871033     -0.82295509700760
  O   -1.15027675856759     -2.18896127519646     -0.46732353455294
  O   -2.15855591716992     -0.45558815069609     -1.38367158547933
