14
Coordinates from ORCA-job run
  C   1.34577292072374      0.11693029419668      0.05229128384731
  H   0.57413300097881      1.28621539931816     -1.58705098824382
  Cl  -1.85375688019438      0.15315045403388     -2.11730752147838
  F   2.58605484127300      0.35510765882607      0.60365826952356
  C   0.77365602352288      1.45178350385996     -0.52827042113220
  H   1.61554604815099      2.14374665540422     -0.41057738838777
  C   1.50769828836336     -0.97141694278675     -0.91310000156382
  N   1.78554458557756     -1.81206650440709     -1.68463266992523
  N   0.48141661837031     -0.37113076802593      1.20220022113969
  O   0.62859991109578      0.23905318713149      2.25627168152887
  O   -0.30754716022814     -1.27799327015993      0.98139355779419
  N   -0.42381106760208      1.99639912922976      0.03702092274152
  H   -0.42500138648675      1.98894562396042      1.04668990887518
  H   -1.21520574354506      1.48750557941906     -0.35668685471912
