14
Coordinates from ORCA-job run
  C   -0.10137514130169     -0.03937756375161     -0.37037878499296
  C   -0.08335091423039      0.00521720472026      1.10200108516044
  F   1.22116214829079     -0.14795724546569     -0.98608814241215
  H   -2.60159112786825     -0.16041243631782      1.33213639113532
  H   -1.62508581091715     -0.04605160026051      1.35085196532068
  H   0.35044543391409     -0.91239353623484      1.52554231432021
  N   -0.81328166197202     -1.20434765974385     -0.90222506294583
  H   -1.73436144058096     -1.16176973197972     -0.46184997482096
  H   -0.35864140837048     -2.01181925657593     -0.48257680423085
  C   -0.71007630230600      1.21189660316417     -0.97307759021262
  H   -0.68616967065775      1.14171307608724     -2.06328011468016
  H   -1.74558685046502      1.30962678360199     -0.63155441367063
  H   -0.14546226422954      2.09016895824406     -0.65045847430535
  H   0.43413501069437      0.89103640451226      1.49438760633486
