17
Coordinates from ORCA-job run
  C   0.53919193400335     -0.04986799802850      0.02448631036054
  H   1.12807059275126      1.82226643442613     -0.73322268890182
  Cl  -2.21402796499728     -0.26545264538745     -0.35988403801979
  Br  3.40044569748058      0.29181504542215      0.31905755403757
  C   0.47308658833380      1.44259528195189      0.05772264785816
  H   -0.56394884954386      1.65951281670407     -0.21630137047944
  C   0.79040445174933     -0.76444717608018     -1.25506844630438
  H   -0.13061763879676     -1.27758758307880     -1.53131591969230
  H   1.09564693410119     -0.08040628761523     -2.04498780953510
  H   1.58074883229719     -1.49793282522416     -1.09460076619642
  C   0.33529400511255     -0.83335559872828      1.26588397366029
  H   1.30689479895253     -0.91377592984181      1.75928465108689
  H   -0.34641538507555     -0.30270141830005      1.92436975491511
  H   -0.04655242253390     -1.82435025701082      1.02799105245312
  N   0.74402233119205      1.97790518468453      1.38026796802371
  H   0.46435226335331      2.94962233443121      1.40744810209873
  H   1.74790383162027      1.91706062167529      1.52333902463514
