12
Coordinates from ORCA-job run
  C   -0.30245463764132      0.10867065680445     -0.24699384027748
  C   -0.33466685893576     -0.03536170461836      1.26157244006101
  Br  1.52932949146598      0.01639209794377     -0.98132727796185
  H   -2.48566640608963     -1.13140056337215     -0.22784031316725
  H   -1.39315110614733     -0.28824738054192      1.45639513940184
  H   -1.05451428959750     -0.68534229945459     -0.61678086193388
  H   0.00492523553294      0.83203607315037      1.82280007179932
  C   -0.84387656812277      1.40847614482475     -0.60535277798090
  N   -1.27382715521167      2.46297189218084     -0.89963217297561
  N   0.45573731405067     -1.19370334879725      1.74928532245474
  O   0.99902545074001     -1.06940475063969      2.85085602228785
  O   0.46126952995636     -2.21428681748022      1.06976824829217
