13
Coordinates from ORCA-job run
  C   0.48941086443777     -0.05238181125273     -0.04819474955972
  H   1.70282683124297      1.60421168275234     -0.13494862551590
  Br  -1.76571994980550     -0.27518236826977      0.00194074822399
  F   2.50891570699867     -0.13188512973134      0.17314006336265
  C   0.62335768130051      1.46430388010359     -0.05693124241391
  H   0.62882492799570     -0.58465989035055      0.87347575124670
  C   0.77229593177852     -0.74745282547895     -1.27751511451588
  N   0.92708857150016     -1.32845717809291     -2.28820954508375
  C   0.19558372176932      2.02490425136100      1.24182392578633
  N   -0.12157740173138      2.56966333425601      2.23388393615663
  N   -0.02547681367158      2.07781871666238     -1.20274312024817
  H   0.22888274558860      3.05691623608838     -1.24122142259217
  H   -1.03123281740379      2.00129110195257     -1.10634060484684
