14
Coordinates from ORCA-job run
  C   -0.23643165173366     -0.14882116368187     -0.38054062985250
  C   0.03502505162090      0.08078317603437      1.10680313322833
  Br  1.43995576613946     -0.50661140180795     -1.36150960966931
  Br  -3.27576046938086     -1.12595802592160      1.98182144122869
  H   -0.94454284248713      0.16262639517295      1.60036830514832
  H   0.59718033536329      1.00882998672927      1.24165919796729
  N   -1.14628647525086     -1.16730700230144     -0.56221255964764
  H   -1.47128522608840     -1.28459162846566     -1.51086851816346
  H   -1.90380744592215     -1.17176432884506      0.14163750621999
  N   -0.74876234096748      1.26388246394377     -0.90331332807876
  O   -1.79630516465724      1.60912684596157     -0.36712490852917
  O   -0.13904595946218      1.89379317455329     -1.75872887676670
  C   0.78360914785503     -1.01683235910379      1.70677370242977
  N   1.43722727497133     -1.84501613226784      2.22064514448517
