14
Coordinates from ORCA-job run
  C   -0.06495122902889     -0.21073973191347      0.13606026176885
  H   1.45305544640451      1.18239270951929      0.54038260315768
  Br  -2.05328326793012     -0.21949041257260     -0.09944148388043
  F   2.39660819992857      0.69593344133146     -1.87840323057159
  C   0.39944375958068      1.25561397820569      0.22718427244328
  H   -0.17489291931045      1.75907074693862      1.01278493314366
  N   0.52545305988065     -0.97028715346927     -0.92620776330849
  H   1.51688788456251     -1.04682942887503     -0.69984872181064
  H   0.60076571065765     -0.33627080525006     -1.72381109174471
  C   0.16580416179784     -0.88018462930521      1.42248843589287
  N   0.39896113892673     -1.37470403677612      2.46288862101924
  N   0.25457545313685      1.89018767565894     -1.06170486310342
  H   1.14269120832211      1.64028523035713     -1.56336876318644
  H   0.18538139307136      2.89115241615064     -0.93475320981985
