14
Coordinates from ORCA-job run
  C   -0.13915526046108     -0.02276394244606     -0.50382503367378
  C   0.10065806018585      0.00319411661156      1.02060090824993
  Cl  1.29226817524505     -0.72155287967815     -1.39867115217275
  H   -1.68368141122059     -1.21995861086513      2.75758621539925
  H   -0.65650729368616     -0.64620403490045      1.56606743509149
  H   1.08438780782160     -0.43308993007251      1.20524599237174
  C   -0.34548014229593      1.31244683152076     -1.07925236142475
  N   -0.50038297205304      2.39105352018925     -1.52040848645515
  C   -0.01384382719332      1.37473403592467      1.66515395381155
  H   0.75746390702292      2.08479018473693      1.35065062405625
  H   -0.99745736526757      1.81221041464314      1.47768478595757
  H   0.04805133208569      1.21688062279869      2.74476810293118
  C   -1.29107610841712     -0.85671785705251     -0.88033961621445
  N   -2.21088490176630     -1.49869247141015     -1.23116136792811
