15
Coordinates from ORCA-job run
  C   -0.25681917860696      0.00822251470784     -0.34374149087976
  C   -0.21657444323909     -0.03077421627615      1.10768071509547
  Br  1.72802924351997     -0.04397097718714     -1.26682847421527
  F   -2.48901995041119      0.73190210608894      1.84289217302329
  H   -1.48769213304736      0.14712763715983      1.42917239572529
  H   0.17261484179966     -0.97938349905239      1.49232726183925
  C   -0.87228890581381      1.27279333487429     -0.90912988775413
  H   -0.92686645000972      1.24755336124518     -1.99792468061831
  H   -1.86677391545379      1.36147035909035     -0.46212552791195
  H   -0.27035362361843      2.11621118532292     -0.57462656915811
  N   0.34748651803902      1.17316641862278      1.70112002237881
  H   1.20061155436723      0.96633111310907      2.20312429109730
  H   -0.34567934565397      1.53507144884318      2.34518344216926
  C   -0.83488288609224     -1.20617062641229     -0.90435729312307
  N   -1.33176132577931     -2.17718016013639     -1.34571637766809
