17
Coordinates from ORCA-job run
  C   -0.07775182358524     -0.02512662152196     -0.37603998406779
  C   -0.25574916520195      0.13399337481454      1.06533622425626
  F   1.33415178576111     -0.25364498184977     -0.79457502445778
  H   -2.52864860734374     -0.28656698672437      1.76311790372253
  H   -1.63346533597122      0.03754011588499      1.34241624851270
  C   -0.82764710069627     -1.21679866342057     -0.94487451913721
  H   -0.42210336283708     -2.13319657379274     -0.51515030730797
  H   -1.88429830385563     -1.14555412455611     -0.66912615726987
  H   -0.71978178411991     -1.25819769436761     -2.03089542604792
  C   -0.45885967812379      1.20244286113905     -1.09257233630869
  N   -0.78590152682828      2.13100598305855     -1.73446366616096
  N   0.20513018665926      1.41206270408601      1.56636148861387
  H   1.13725447420728      1.29968201299308      1.95805973836165
  H   -0.39935116786465      1.66212429335513      2.34619963908190
  N   0.14484187113317     -1.01312154421356      1.85352313655091
  H   0.77698002200544     -1.62819692073909      1.35509057164581
  H   -0.69555048333849     -1.53418723414560      2.12196247001256
