12
Coordinates from ORCA-job run
  C   0.48139365951542      0.00139788352933     -0.04506114463476
  H   1.77296172399498      1.72661589310334     -0.16993182421929
  F   -1.15950887413802      0.05306382147697     -0.05824150277493
  H   2.39731770281378     -0.35975816953715      0.09625311808588
  C   0.71639193027969      1.50781298033527     -0.06939060036280
  H   0.58805881886121     -0.52186345749501      0.88810319532999
  H   0.37003691181839      1.87280584843430      0.91175688831783
  C   0.78303009977076     -0.77819463573005     -1.22174369904347
  N   0.77683865848198     -1.42233411077706     -2.21251711978377
  N   -0.00663985859255      2.10293464477620     -1.19691258090045
  H   0.01617017299230      3.11172342689282     -1.10588951645924
  H   -0.96684094579792      1.79360587499102     -1.11319521355500
