17
Coordinates from ORCA-job run
  C   -0.14782997505967      0.00354394679760     -0.36442077923751
  C   -0.20609994297072      0.08197770132847      1.13560169476204
  Cl  1.50334025831408     -0.17653953715736     -1.06038242580389
  H   -2.77047392121863     -1.00988604914304      1.55439747818396
  H   -1.30846623867764     -0.05743216801617      1.35105903807716
  H   -0.74227229008910     -0.84189298934808     -0.70915887395872
  C   0.36642283210371      1.34558422806086      1.75513042944854
  H   -0.18900760689020      2.23853805105120      1.46485693640711
  H   0.30259628598520      1.25427682334987      2.84355285080691
  H   1.41746719296285      1.49958521030542      1.48601550824156
  C   0.41105914597566     -1.17791709971931      1.72898582949612
  H   1.49562566502338     -1.22553470651336      1.58720509228588
  H   0.18535055884527     -1.20066806273044      2.79819027817412
  H   -0.06302725158833     -2.06254632118523      1.29665869662298
  N   -0.77123536212125      1.20713424397103     -1.02590455440523
  O   -1.86993429111123      1.03088217941702     -1.54672633048576
  O   -0.16806505948340      2.27661454953152     -0.98065086861528
