15
Coordinates from ORCA-job run
  C   0.30285334800177     -0.05832810301261      0.01799050220076
  H   1.59649219360064      1.58972458248104      0.31133225975376
  F   -1.11283080018851     -0.21352046126070      0.10334105111246
  H   2.35937365766205     -0.31479557093013     -0.05279140886062
  C   0.53539714267483      1.45233908360217      0.10749338305066
  C   0.78063296008388     -0.67135957921111     -1.21212188812992
  N   0.74390719532635     -1.17368336329421     -2.28422452777474
  N   0.88186578138254     -0.77909845229488      1.18812646263776
  O   1.01119970861215     -0.10216416879110      2.22933058065778
  O   0.77834389216842     -2.01629335671623      1.16274018781893
  C   -0.25813025062285      2.04238932786597      1.20535991698276
  N   -0.90598126549974      2.67263183580128      1.95683659279040
  N   0.19803504949652      2.04612487276403     -1.18304105963324
  H   0.30309482905949      3.05185508139782     -1.11988217235680
  H   -0.77718344175755      1.85168827159861     -1.38365988024987
