14
Coordinates from ORCA-job run
  C   -0.10192076316402     -0.00503338876144     -0.36889997174011
  C   -0.13004741573018      0.11640272418535      1.09896559914798
  F   1.24080509967451     -0.12354188666930     -0.93730835982181
  H   -2.64946063279531     -0.08964864707888      1.26920916422879
  H   -1.67304366693297      0.03873778599228      1.30908705144722
  H   0.31386018829579     -0.76606754806429      1.58222906774210
  N   -0.77892262276962     -1.20822558761052     -0.85990810559047
  H   -1.71205765408840     -1.16075538677240     -0.44599480767278
  H   -0.32215149366970     -1.98515108550676     -0.38812409448257
  C   -0.70972544275856      1.20231945613899     -1.05614105840332
  H   -0.65202427608286      1.07306534957200     -2.13964700168018
  H   -1.75612317967208      1.30353727437455     -0.75084751437492
  H   -0.16629585332875      2.10510654348185     -0.76644629704558
  H   0.35081771302214      1.03523439671858      1.46035632824565
