18
Coordinates from ORCA-job run
  C   -0.08129741822825      0.02598383873273     -0.42994662775185
  C   -0.14033703840351     -0.03332052992198      1.09105247080395
  Cl  1.59995192856283      0.28653504711123     -1.12444052917090
  H   -2.74869130986432      0.78806371356448      1.50821143903667
  H   -1.24779346091100      0.00087869405068      1.34892997522114
  C   -0.54500068451432     -1.24710662476266     -0.98762865403178
  N   -0.92783435557755     -2.25965275979338     -1.44535328193785
  C   -0.97209670467420      1.16306092735912     -0.91078638364982
  H   -1.13619301782950      1.08682789485262     -1.98718117361880
  H   -1.91415306802223      1.11721149966164     -0.33602517024181
  H   -0.48787471420653      2.11674715666626     -0.69539209824152
  C   0.49731084175736      1.13311703949620      1.81162802149483
  H   -0.12346337768775      2.01481033552654      1.64080019093667
  H   0.46916180474223      0.93357300118215      2.88601830254216
  H   1.52775777608674      1.30755644707140      1.49689408744838
  N   0.43724303304861     -1.30561203609629      1.61522862557841
  O   -0.26176288320556     -1.97084914123486      2.37927148627793
  O   1.59101264892697     -1.59896450346590      1.29163931930418
