17
Coordinates from ORCA-job run
  C   0.65761099046480     -0.06169552036462     -0.02243772789614
  H   1.73449753525065      1.77150909693390     -0.02070667048943
  F   -1.16620289742926      0.02565999977329     -0.01163553894690
  F   2.53983534159612     -0.09075509498956      0.01318807731262
  C   0.68813858827327      1.47219450482292     -0.01053302417549
  C   0.69809440998091     -0.81816078923282     -1.33415588172978
  H   -0.26589214598212     -1.29223439075735     -1.51477209011257
  H   0.91809188135496     -0.12501312780440     -2.14563683656739
  H   1.49388166655399     -1.55796687809291     -1.28058591573226
  N   0.65172819737390     -0.72380438294413      1.24781984600056
  H   1.49596062849927     -1.27544613124028      1.28505599734932
  H   -0.18734261991939     -1.28371187200618      1.29382422144370
  C   0.08816133011452      1.98292579862034      1.24077978680184
  N   -0.35924745057256      2.55176862043030      2.16657056367052
  N   0.02136085490536      2.02223679195439     -1.19252272057775
  H   -0.00532076459089      3.03243160700979     -1.11215723542052
  H   -0.92659554587354      1.66358176788729     -1.13553485093033
