16
Coordinates from ORCA-job run
  C   0.27844514709995     -0.07450941565162     -0.13599172801625
  H   1.58969229954508      1.48256449932312     -0.59308339292712
  Br  -1.78373830363307     -0.43612267635634     -0.95478467538269
  F   2.04377657661970     -0.10226245935940      0.76238639284295
  C   0.55954328068928      1.40723117746483     -0.26462049177136
  H   0.05017679843268     -0.53525254402644      0.80288696138732
  N   0.99257257721540     -0.93989552236159     -1.09626999082848
  O   1.47190275917712     -0.39666643633259     -2.09038771472881
  O   1.02201015005005     -2.13820155067816     -0.85831294482927
  N   0.57295975007667      1.98788852251489      1.11680196486377
  O   1.34194547317636      2.92764848259042      1.30471389394967
  O   -0.24012841239664      1.57256847837541      1.93727162472078
  C   -0.32443173715087      2.30290510413836     -1.11565747853783
  H   -0.36060927803736      1.90720328603782     -2.12976079426151
  H   -1.34005592482048      2.35712610376632     -0.72620529186809
  H   0.12208884395613      3.30071495055500     -1.13375633461308
