11
Coordinates from ORCA-job run
  C   0.75914773253716      0.30673610878689      0.02346866449599
  H   -0.27575204260335      1.70644361986844     -1.19968908131911
  F   -1.35796299141371     -0.27250946451000     -0.59877828497171
  Br  3.13460020080423     -2.45259749999560      0.68592708745317
  C   0.17575447026161      1.64845748506175     -0.21610576480277
  H   1.20809474836913      0.10093076385619      0.99561127007564
  H   0.97978481228063      2.38865207349870     -0.09022067999283
  H   -0.60169002610904      1.83014958265454      0.52106630910144
  N   1.06480116508860     -0.54976713566512     -0.88786041051668
  H   0.35983824002287     -0.58618352946424     -1.62102375521184
  H   1.59945369076187     -1.37926200409155     -0.58173535431129
