14
Coordinates from ORCA-job run
  C   -0.06800022835497      0.01827219580789     -0.33560692226126
  C   -0.06238439482022      0.13802457600069      1.11143749570381
  F   1.23176224799890     -0.30282559436734     -0.96576722449607
  H   -2.32857589960496     -0.50268411225661      1.78536778379087
  H   -1.49478824119619     -0.05672955077058      1.45905583341428
  H   -0.37821008800593      0.94277397288480     -0.83704631868283
  C   0.52900030670808      1.39801993319429      1.69480776401687
  H   0.16173345047566      2.29070570398218      1.16921549734835
  H   0.23512464738062      1.48757712306618      2.74868223869655
  H   1.63277635244280      1.42748218527770      1.66885343359295
  N   0.39101600162732     -1.05387264101274      1.81681038876044
  H   1.00106913171641     -1.60512250545301      1.22305213019315
  H   -0.43828314916437     -1.62139831557736      2.02688356398874
  H   -0.70311013720315     -0.81894297077608     -0.65734566406585
