13
Coordinates from ORCA-job run
  C   0.70656428498861     -0.00629191982591      0.01408920733615
  H   1.72455558744695      1.89538385193755      0.07849962490153
  F   -1.22541665753625      0.09273852349361      0.00432002890689
  Cl  2.85053700122210     -0.34586544960053     -0.17623278991352
  C   0.70119884272083      1.52025104574892      0.03891980279643
  H   0.54098843632250     -0.48871444405986     -0.93067898102416
  C   0.55552315385556     -0.76542969011721      1.22846462381495
  N   0.46403057552458     -1.38385935942291      2.22407950131766
  C   0.01442130046274      2.02821925479854      1.24805431704301
  N   -0.46212823653735      2.57830025108000      2.17050677915611
  N   0.08604570147975      1.97783488208606     -1.20041142104476
  H   0.02960968445098      2.98982638062995     -1.19118976282007
  H   -0.85202967440100      1.58616667325181     -1.16060093047020
