15
Coordinates from ORCA-job run
  C   -0.24726679715420      0.01671914033073     -0.27777856759525
  C   -0.10333998243303      0.01080098787634      1.16609214652277
  Br  1.56176122062589     -0.02745926781250     -1.39507905847361
  F   -2.59368871755035     -0.46872305512308      1.45377795771396
  H   -1.35140612743068     -0.09691469625035      1.39188289525551
  H   -0.75354642656381     -0.86506030001349     -0.66356162996669
  C   0.53161626866352      1.25899925108745      1.73975809337556
  H   0.05693953692547      2.16272580754719      1.34110648384225
  H   0.42151002533454      1.28390429013124      2.82987147232507
  H   1.60611671108168      1.31905895013791      1.50798623405467
  C   0.47927497305117     -1.27083707351767      1.72453077223056
  H   1.53110490413130     -1.41618529182352      1.43649229012729
  H   0.41907394387490     -1.27023486210863      2.81854309844024
  H   -0.10331364585794     -2.12674946396869      1.37119143963863
  H   -0.69581588669847      0.92774558350708     -0.67120362749098
