17
Coordinates from ORCA-job run
  C   0.73465878283201      0.02942638978050     -0.00551425490789
  H   1.67711239298176      1.92788760000307     -0.22001772968005
  F   -1.08200514252632     -0.00978943805033      0.23270100039493
  F   2.58833480369341      0.09590034670431     -0.18209877707825
  C   0.65872366485382      1.57100618823273     -0.07040736403071
  C   0.68097872054766     -0.81246502440250     -1.26382752586717
  H   -0.33880906926394     -1.13882335438797     -1.45725537036914
  H   1.05184800321708     -0.23507409869626     -2.11137331362211
  H   1.34597935452625     -1.66662760899027     -1.13808717182259
  N   0.91334438621888     -0.53849027130119      1.30356474026411
  H   1.79021538447405     -1.03811227610758      1.27283916663776
  H   0.12484329334656     -1.14700434400131      1.47046046673650
  N   0.11535703255833      2.19043918932229      1.13493719056907
  H   0.71211928795107      1.84491109452468      1.88121180782304
  H   -0.76335944166647      1.69481549900740      1.26552683904793
  C   -0.13241013961690      2.00164340990185     -1.23195877707665
  N   -0.70395131412723      2.39070669846060     -2.18076092701877
