18
Coordinates from ORCA-job run
  C   -0.07847883874930     -0.00658047581283     -0.42055597553470
  C   -0.15476252665305      0.01669688239785      1.05561280981883
  F   1.20196346437964      0.15141897760774     -0.94886033209161
  H   -2.26246869328470      0.10056965101554      2.49121545585085
  H   -1.28040792969412      0.05087445923184      1.46569246226023
  C   -0.63806563940450     -1.22340982870173     -1.02978301550140
  N   -1.03149762056448     -2.21538625321747     -1.52158029222457
  C   0.46922799585148      1.25980980021106      1.66576161017419
  H   0.14910649297660      2.17872586796053      1.16929079632565
  H   0.10168160134293      1.30750621597031      2.69746523572650
  H   1.56457784185214      1.22934332738740      1.66366119639750
  C   0.39269230604742     -1.24638859510283      1.69557505210011
  H   1.48768987956627     -1.30066059226966      1.67000048039605
  H   0.04928415864558     -1.23518892703751      2.73715872375478
  H   -0.01786988515532     -2.15179818779253      1.23939374583089
  N   -0.88984249421025      1.17008023404093     -0.99484787503372
  O   -0.27380639673330      2.18571177406784     -1.29603646929300
  O   -2.10242371621303      1.00554567004348     -1.05196360895656
