16
Coordinates from ORCA-job run
  C   -0.22882936826422     -0.02990298383691     -0.35098003317638
  C   -0.09590354473851     -0.07424144649044      1.14660288322054
  Br  1.48570271691901      0.32310919156953     -1.33589543896744
  H   -2.68706620821458      0.58365571769535      1.84370254354655
  H   -1.19554170083613     -0.08595689212983      1.45554267500777
  H   -0.87822498269007      0.80609055975712     -0.62557057066156
  C   -0.76592193181251     -1.25862985290652     -0.92471117207966
  N   -1.19925351746670     -2.24676238155727     -1.39055971642416
  C   0.42456996320589      1.24901780402953      1.71379875432886
  H   0.71946527933067      1.95966071167357      0.93652962948888
  H   -0.38807250093604      1.69913512934301      2.29589232572689
  H   1.29698451986409      1.09654385969844      2.35739371263153
  C   0.64368128859361     -1.29330731577488      1.66596380671878
  H   1.70427393164304     -1.27928219779244      1.38636253971446
  H   0.58009539871707     -1.31028711924857      2.75809999302765
  H   0.20093065668538     -2.22341278402976      1.29726806789729
