16
Coordinates from ORCA-job run
  C   -0.21134625425340     -0.01597347940437     -0.28033583936815
  C   -0.15411101292403     -0.14913109372330      1.17671168659794
  F   1.07014582328024      0.33978973241102     -0.88587357185742
  H   -2.51979530728250      0.42073114362370      1.66049284249021
  H   -1.66233659851832      0.02256689550485      1.47801659900534
  N   -0.65818796888312     -1.17490890731981     -1.04372296608858
  H   -1.58795270389621     -1.38562035355142     -0.69101644372882
  H   -0.06903615095392     -1.95308668156312     -0.76519149395306
  N   0.26796370961986      1.07563643296129      1.84441302063461
  H   -0.56708766714162      1.64810301115054      2.00468675769852
  H   0.88986244661925      1.61346510185537      1.24763642317059
  C   0.55665638438074     -1.36116429615826      1.72959226257675
  H   1.63557035405437     -1.40922649452043      1.48095991041115
  H   0.48766751865448     -1.33606754744990      2.82184442163980
  H   0.10498813667726     -2.30723113681390      1.40029751958766
  H   -0.85888070943309      0.83412767299773     -0.54307112881655
