17
Coordinates from ORCA-job run
  C   -0.12877063965630     -0.02345563766714     -0.34956203973070
  C   -0.14779802061992      0.05834812172219      1.16208846974259
  Cl  1.54496221695823     -0.22327053697316     -1.03437312192414
  H   -2.45836031771281     -0.93636579782413      1.40632550941113
  H   -1.32402922546302     -0.13585265790433      1.38837305453071
  N   -0.97438819279265     -1.03516419373156     -0.87385445950610
  H   -1.74770428670961     -1.15609871750599     -0.18620440566006
  H   -0.46025555214653     -1.90298382989770     -0.93813774330341
  N   -0.66383281553678      1.33546246283599     -0.86951239194663
  O   0.12731457818555      2.23762161046339     -1.11994195727623
  O   -1.88499622492037      1.41433927361561     -0.91840999136791
  C   0.46454293580240     -1.16453563713219      1.83044910321421
  H   1.52115720676768     -1.29779556641779      1.58672397340492
  H   0.35295486876981     -1.06717738220825      2.91327030547632
  H   -0.11187700551186     -2.04314996310769      1.52956494403694
  C   0.36083677989955      1.28940029306602      1.71178129381524
  N   0.75446369468666      2.27255815866671      2.22960945708314
