17
Coordinates from ORCA-job run
  C   -0.64586128998851      0.01706451497019     -0.19544817059946
  C   -0.39840338541253      0.07367527023942      1.15442563868855
  Cl  2.01131238730636      0.34482660916765     -0.91169218118888
  Br  -3.41480465957649     -0.09663866932421      1.97909396092942
  H   -1.74480741649928      0.01590454836260      1.32855143657328
  H   -0.13121152064460     -0.87124261707025      1.63479088926291
  C   -0.96660479275377     -1.29129584931254     -0.83047088720084
  H   -0.85038757825161     -2.12359016158216     -0.13431235662031
  H   -1.99573069528845     -1.27961477678201     -1.20747033988794
  H   -0.28187588640922     -1.43354400083728     -1.66933114869527
  N   0.07996323510429      1.29091916475864      1.71339731197371
  H   0.98739438959406      1.45872872045913      1.27915833543002
  H   0.18994130770444      1.20426774408211      2.71385472599228
  C   -1.01432461579446      1.24124573075681     -0.96010066615178
  H   -2.09831817646325      1.38675816969831     -0.83529120264573
  H   -0.49618765743704      2.12049839217331     -0.59121855002132
  H   -0.78902364518995      1.10527721024026     -2.01720679583865
