11
Coordinates from ORCA-job run
  C   0.61448993602165     -0.04951483549371      0.03607510513140
  H   1.83735680065599      1.67228463336505     -0.31382899635599
  F   -1.15967041533204      0.17326910831874      0.05599921297342
  F   2.37200880317164     -0.36439294216942      0.12275128509928
  C   0.80172586816711      1.43277846772678     -0.07990407900541
  H   0.54698535430796     -0.63765405067683     -0.85863602137806
  H   0.53069996382359     -0.50653520957911      1.00229796306597
  H   0.45839749342981      1.94663602811399      0.81297909494785
  N   -0.00817149122896      2.00959441950745     -1.19299342914708
  O   -0.63680433724589      3.04422035330271     -0.97211494751772
  O   0.07479202422913      1.47475402758433     -2.29421518781364
