15
Coordinates from ORCA-job run
  C   -0.06029038640616     -0.26534212738183     -0.20985736374579
  C   -0.34985785485310     -0.20418525346254      1.27772168951045
  Cl  1.68692137258721     -0.25249185771812     -0.52689642431811
  F   -1.01787989253620      2.15666597160120     -0.82288888790482
  H   -1.43565909940911     -0.26960427649923      1.36248891659096
  H   -0.69085259174779      1.23938831615355     -0.73167441838103
  N   -0.70826688702623     -1.36984518338821     -0.85055200095005
  O   -1.80003551142819     -1.73965502651610     -0.36592411439995
  O   -0.24548260185432     -1.85050389830791     -1.89381502650058
  C   0.14571156992027      1.11752501156129      1.91175365005222
  H   0.81760804321495      0.93470895849027      2.75218113956758
  H   0.67285743467797      1.71721779125478      1.17316759950724
  H   -0.70459115921776      1.70369883307067      2.26399501075238
  C   0.18828607817675     -1.36718889784200      2.00506429405150
  N   0.63127148590172     -2.28062836101587      2.59755593616795
