11
Coordinates from ORCA-job run
  C   0.55732031225245     -0.06999710789100     -0.00234719025225
  H   1.69506202278118      1.76978597586262      0.00362550647459
  F   -1.10851576814743     -0.06325725188755      0.01310960239587
  H   2.42630307806414     -0.17730831133034     -0.00721984684818
  C   0.65218202747554      1.45754788530146      0.00052353654806
  H   0.69032116747363     -0.59402406448248     -0.92982132254452
  H   0.70367131631277     -0.59734728611157      0.92142828836219
  C   0.00698742168867      2.01357041996976      1.19770007291949
  N   -0.42126709235133      2.48879064867079      2.18182332432822
  C   0.01120356548506      2.01630157237570     -1.19714076139168
  N   -0.41712805103469      2.49118751952260     -2.18138120999180
