17
Coordinates from ORCA-job run
  C   -0.24778478555624     -0.09744417334634     -0.25900777960853
  C   -0.01863053338826     -0.05048343149807      1.24611532723707
  F   1.02714624084225     -0.05577936673813     -0.87629365729545
  Br  -3.80812454204979      0.27878255481509      0.59207605673857
  H   -1.02745100802011     -0.10227574647251      1.66701509431952
  H   -0.77766954291105      0.80244106257028     -0.57793891249899
  N   -0.96943819109763     -1.22467060328753     -0.75355278522775
  H   -1.95923278630963     -0.99910110166376     -0.65250894514535
  H   -0.78886711608851     -2.03751048087625     -0.17618183851396
  C   0.60597917479578      1.27859904811074      1.66108187656788
  H   -0.02837394862625      2.11405839984401      1.35211223781594
  H   0.72458642657618      1.33176564136360      2.74789375177119
  H   1.59024909534077      1.39750910714898      1.19959351367484
  C   0.83165454445423     -1.24513205702504      1.72288537670749
  H   1.75956189174785     -0.90141231899843      2.18913017821106
  H   0.29938405626889     -1.85387122062336      2.45807668878386
  H   1.12808102402150     -1.89529531332326      0.89597381646259
