18
Coordinates from ORCA-job run
  C   -0.61121423160572      0.06222597975718     -0.10197660642665
  C   -0.15589592407875      0.02395109516229      1.24964781813827
  Br  2.25139023233604      0.34394478763304     -1.22011161689883
  F   -2.07409571251829     -1.49588395762351      1.84511578456340
  H   -1.28897079388826     -0.51098959151547      1.69309183407069
  N   -1.08557954570410     -1.06981953642008     -0.62945087954153
  H   -1.63687058296627     -1.01101336419392     -1.46853803359599
  H   -1.36700310109769     -1.75290591176497      0.07115347261237
  C   -0.86405016706844      1.32594093093594     -0.85821667675663
  H   -0.84388957375915      1.12488702963224     -1.93009703454915
  H   -1.84865240162577      1.72821833493367     -0.58555760991131
  H   -0.08839922068543      2.05576091132878     -0.64894324271332
  N   0.26535643402595      1.25855948847877      1.87188383050631
  H   -0.37821025652770      2.00669450070237      1.64409862440390
  H   1.18148430777023      1.49601405842030      1.49476042376745
  N   0.71679785057490     -1.07271643405100      1.59757600111198
  H   1.29977064275011     -1.30149775087336      0.79741813475928
  H   0.17682204406834     -1.86791057054225      1.90763577645976
