11
Coordinates from ORCA-job run
  C   0.54021258740929      0.01964004563960      0.01849430664984
  H   1.34712967635193      1.87069649517143     -0.59409362464651
  Br  -1.75533576286381     -0.52925619095100     -0.82437736184888
  Cl  2.77516003932635     -0.08175361831422      0.79135083696274
  C   0.49312886084506      1.52297490744486      0.00168500133762
  H   0.88096667659316     -0.53105444392901     -0.83688990746586
  H   0.25624651582140     -0.50920239637733      0.90926849624757
  H   -0.42336218357266      1.84541398256379     -0.49060838317078
  N   0.48754019893265      2.04218892513613      1.36929306094348
  H   0.43640095149238      3.05339951911120      1.33248846640176
  H   1.38135243966425      1.79333277450456      1.77886910858902
