17
Coordinates from ORCA-job run
  C   -0.32041224021361     -0.07469797952755     -0.27716503740389
  C   -0.16222381773829     -0.00853852748030      1.09013014575190
  F   1.44687037635366     -0.05868659152058     -1.19347509016767
  F   -2.53672314563412      0.25022362667554      2.34527596925034
  H   -1.77522793723142      0.15476921124760      1.75027243365362
  H   -0.52749880362155      0.84786244108891     -0.80942558747358
  N   -0.76564837770156     -1.22375771493328     -0.95907569664037
  H   -0.41169109428626     -2.03663375999033     -0.46955646579732
  H   -0.25288923536939     -1.18258303851858     -1.83279953311382
  C   0.44914654418756      1.26476116089625      1.61600436537112
  H   0.10390019306763      2.12940692628705      1.04011161851763
  H   0.18922346571314      1.43976960021823      2.66786414771103
  H   1.54491931581660      1.23505564890298      1.52500901991065
  C   0.25650487734124     -1.25584055077018      1.83191701555013
  H   1.27284978443036     -1.56302658748054      1.54024090227824
  H   0.25002512785121     -1.07784130042260      2.91265151703514
  H   -0.42005503296522     -2.10006256467263      1.65849027556685
