15
Coordinates from ORCA-job run
  C   -0.22310794580778     -0.02255692234190     -0.36171399153244
  C   -0.18286816262827      0.06341758469396      1.18211451729963
  Br  1.78453665143570     -0.14614994491973     -1.01709487424450
  H   -2.57014271321054     -0.81415585476267      0.91058347698002
  H   -1.31640071692333     -0.14479173456058      1.39318835504233
  N   -1.03154867230450     -1.02492509775099     -0.87359445461475
  H   -1.94711091415928     -0.95261559815007     -0.11637651607618
  H   -0.63431823206908     -1.91428921266671     -0.57666029118288
  C   -0.65990386632562      1.28134541955481     -0.87321159068925
  N   -1.05823196794024      2.30900824283403     -1.28431296365695
  C   0.28790828017291      1.31858155568966      1.72231253852592
  N   0.61623999256835      2.36695783104942      2.14301446602133
  N   0.52905527845877     -1.06955519892404      1.82004813495802
  O   1.29262184976094     -0.82720468418066      2.75489530211899
  O   0.27251113897194     -2.19675638556457      1.39759789105071
