17
Coordinates from ORCA-job run
  C   -0.14873720872168     -0.02336438422069     -0.35561883937752
  C   -0.23539694831680      0.02480559407659      1.16197857486790
  Cl  1.56951823032781     -0.21521947022872     -0.94932979926837
  F   -2.96569002803619      0.08145208024885      0.70011354143821
  H   -1.33030838791689      0.00569193486038      1.36006463447302
  H   0.31647815882275     -0.80034882246967      1.61936689676769
  C   -0.93123539131369     -1.25326095424308     -0.79100970143013
  H   -0.48707633597766     -2.16322295404148     -0.37578723278323
  H   -1.94656981159564     -1.09159537858621     -0.39853601229500
  H   -0.92577553329340     -1.33167090988852     -1.88162448079330
  C   -0.76931981917217      1.22856790010015     -0.94493450250805
  H   -0.79778051902837      1.16131691305140     -2.03555954381419
  H   -1.78554445499662      1.24049073572879     -0.52773351240144
  H   -0.20918528066230      2.12407738538925     -0.66538941184881
  N   0.30866238688786      1.27166143196880      1.77679896133778
  O   1.44815471013506      1.63495154381776      1.47897104729491
  O   -0.40979376714209      1.86030735443635      2.58571938034053
