13
Coordinates from ORCA-job run
  C   -0.30576689074350      0.01877525730835     -0.26718633989299
  C   -0.11745954986215      0.11562646432356      1.23322168937609
  Cl  1.13361795040877     -0.95870468689042     -0.96789130002870
  F   -2.74222654411816     -0.85574105957476      1.62814919827695
  H   0.05721616909170     -0.87741895259025      1.64284569775053
  H   -1.07728264110407      0.41872806090716      1.65907126638646
  H   0.70770294377476      0.78831841161566      1.47469365182276
  N   -0.13145012379901      1.34646353986288     -0.86235198836782
  H   -0.82515929471822      1.91326051599687     -0.37803304470257
  H   -0.48763869606119      1.25793625703346     -1.81062409911234
  N   -1.53302388261691     -0.61382773362869     -0.60734880797591
  H   -2.08921860660022     -0.83986525051834      0.29036915270348
  H   -1.39691083365181     -1.41915082384547     -1.19782507623596
