10
Coordinates from ORCA-job run
  C   -0.25956421001908     -0.03981847476397     -0.35656011629324
  C   0.12088399872787      0.02344754384031      1.10925085903403
  Br  0.50669792915159      1.47601731375742     -1.34549652134594
  H   -2.37569633462509     -0.24400539699791      1.34479710567318
  H   -0.29256274581375      0.93543178657318      1.54139199282762
  H   -1.34900072059279      0.02280173401270     -0.40815827398869
  H   1.21237944656707     -0.00563071865717      1.22789722876451
  C   -0.47971053852243     -1.13038422041657      1.81404891353922
  N   -0.36444649744465     -2.15734754753803      2.39908996765290
  H   0.12370967257127     -0.93686201980998     -0.84301115586359
