11
Coordinates from ORCA-job run
  C   0.51425757300449     -0.05242461985517     -0.01471547794206
  H   1.72226635418915      1.76470893287898     -0.04343727370407
  F   -1.12072217923534     -0.01705501956323      0.03091711818794
  H   2.37743064813184     -0.27346414149674     -0.05319745311594
  C   0.67866810756052      1.46679845302891     -0.04169799428342
  H   0.67620795624401     -0.56025107583128      0.92057012337655
  H   0.19272127172737      1.85205496088713      0.85824748414632
  C   0.76793465226902     -0.82221699898408     -1.20392444359957
  N   0.74262434530736     -1.45013051394183     -2.20470934506624
  C   0.00514242165112      2.07142993541631     -1.19271230678701
  N   -0.47707115084954      2.62229008746100     -2.10998043121250
