17
Coordinates from ORCA-job run
  C   -0.18975121356128     -0.02114510683602     -0.27106385202402
  C   -0.03082212098815     -0.03322770798833      1.20076830175669
  Cl  1.47308057561960      0.00000037900931     -1.24830666887717
  F   -2.54798341771669     -0.06870101506133      1.24165316111382
  H   -1.29116027198292     -0.04623784113973      1.41829598618645
  C   -0.85780942215110     -1.22079732148608     -0.78325841666849
  N   -1.32339365079296     -2.20740315156449     -1.21955135407979
  C   -0.87538212842625      1.17826386721952     -0.75975818696120
  N   -1.35719375639097      2.16618851140294     -1.17493553008035
  C   0.61221289054495      1.23300542592817      1.72980503211140
  H   0.04623879381268      2.12190016132552      1.43756739113063
  H   0.62667183029231      1.20228467337094      2.82387254282319
  H   1.64892292580339      1.35554254296038      1.38319245991219
  C   0.63117964759245     -1.29827569683510      1.70790161709455
  H   1.67665079421028     -1.38776415017141      1.37781865586167
  H   0.09142135024033     -2.19146965391175      1.38131567906206
  H   0.62436717389432     -1.29734391622253      2.80249318163839
