13
Coordinates from ORCA-job run
  C   -0.73533413689249     -0.24296362378099      0.15084194239832
  C   0.48604033938464     -0.38953087111352      1.00357874243894
  Br  2.04353807583729      2.44604062469084     -0.79417112412582
  H   -3.24914822453218      0.55288186908406     -1.12233748234146
  H   0.22365054457279     -0.20638842552714      2.05050286770845
  H   0.86891077259145     -1.40980569321949      0.92200772032548
  N   -1.76791276548107     -1.10554740990406      0.32215445192412
  H   -2.63054163794134     -0.74639857038269     -0.12912139114073
  H   -1.85259615721504     -1.51568750925573      1.23754439059205
  N   -0.83659094588350      0.64368064134212     -0.79064992631343
  H   -0.05903652246895      1.30376631712630     -0.92154832442875
  H   -1.89571400926165      0.75756415708042     -1.13598618597342
  H   1.24980466729009      0.32500849385983      0.69408431893621
