11
Coordinates from ORCA-job run
  C   -0.22432327693809     -0.01415831258859     -0.30214934717203
  C   -0.18647019292045      0.05949771949820      1.13270714327234
  Br  1.83099269427782     -0.09606851315860     -1.25901944392768
  H   -2.65428662266292     -0.34720814978845      1.30935435401422
  H   -1.46448571144137     -0.02705541471202      1.33519776304588
  H   -0.52650578826101      0.91736500881007     -0.78076189093665
  H   0.25160123164934      0.96568333369760      1.55527708076240
  H   0.18143286172229     -0.84522073329527      1.62302746720523
  N   -0.94534313851936     -1.11130148035969     -0.85568754370757
  H   -1.88980811457801     -0.99207873828065     -0.43672539416383
  H   -0.58220394232824     -1.95880471982261     -0.42808018839231
