16
Coordinates from ORCA-job run
  C   -0.21327364463597     -0.04177462404572     -0.28828470330113
  C   -0.16050483583703     -0.02702620427141      1.17463894919223
  Br  1.77023917054341     -0.20984270093276     -1.17703956157453
  H   -2.43864024592479      0.90532906072779      1.77724736660204
  H   -1.33448286833517      0.17988404182428      1.44224014639901
  H   -0.61422758467521     -0.98332851017852     -0.66974694141283
  C   -0.87702255109934      1.15660546380489     -0.89840419656311
  H   -1.07832301148462      1.02093134344523     -1.96294268863778
  H   -1.81608691600131      1.29956376659291     -0.33236263658789
  H   -0.27796565122174      2.05848554229908     -0.76783314934889
  N   0.27742702130714     -1.25175392062551      1.82636311882487
  H   1.25212325082025     -1.40837734979524      1.57587110038893
  H   -0.25932248358369     -2.02680266480747      1.44862476580868
  N   0.48462880295573      1.12799399604745      1.75367319897521
  H   1.06415702660242      1.59768321853530      1.06820405478023
  H   -0.25627547943007      1.76008954137969      2.05780117645496
