17
Coordinates from ORCA-job run
  C   -0.15929137194791      0.08184155677924     -0.36456078614935
  C   -0.14633337354756      0.05349905549224      1.18171752094650
  Cl  1.57501146389746      0.00952512900330     -0.97579696866550
  H   -2.67444330283642     -1.24012071360485      0.91224930079054
  H   -1.22218454173723      0.05945521859846      1.42905881551528
  N   -0.93045197982909     -0.98463815259666     -0.90422585296582
  H   -1.78151968924216     -1.12222131970883     -0.21840368139368
  H   -0.38942345339081     -1.84093442656139     -0.82798529843483
  C   -0.69575335255605      1.35550425765804     -0.87576193879764
  N   -1.12202998720010      2.35220306940380     -1.32871073191144
  C   0.50260375641653     -1.19054800362299      1.76263511613784
  H   0.78098256571040     -1.89797593673678      0.98234986969775
  H   1.40731044546092     -0.92902068688875      2.30878022760450
  H   -0.21749211231225     -1.68760736725044      2.41500461158455
  N   0.43898379512325      1.31133052122893      1.74085429410360
  O   1.62362825681008      1.33356193818065      2.08208121258181
  O   -0.31986711881906      2.28179586062603      1.80642428935591
