14
Coordinates from ORCA-job run
  C   -0.10193972830225      0.08396954300386     -0.32312943192478
  C   -0.20166157254903     -0.01613728092584      1.19095800090699
  F   1.27245115121606      0.01299930624624     -0.68275079575118
  F   -2.93208566336321      0.46407029505735      0.18532407722067
  H   -1.28346710515844      0.05333328747270      1.34808726228540
  H   -0.58555086778860     -0.79067954195489     -0.76457811769202
  H   0.14513403572245     -1.00698963749170      1.50898647712088
  N   -0.70532388292457      1.23677462457149     -0.90609870023088
  H   -0.39695402722242      2.05317784428669     -0.38498411230011
  H   -1.71903893042476      1.07873892389628     -0.63260959917151
  C   0.58178547849722      1.08402470379496      1.92521084377167
  H   -0.05957475113651      1.65145063250037      2.60434489470082
  H   1.40529221418360      0.67042912271470      2.51417874429618
  H   1.03107364925038      1.79529817682780      1.22722045676785
