15
Coordinates from ORCA-job run
  C   0.54952112145676     -0.03908220262520     -0.00234138435071
  H   1.66274361077156      1.63804730495307     -0.24033713564182
  Cl  -1.50534997469803     -0.52723361517035     -0.41464568858245
  F   2.49494581828052     -0.01674474936252      0.62887340771967
  C   0.59470102558113      1.46829698041222     -0.09605175524450
  H   0.94510870178029     -0.61163249197394     -0.82280953163870
  H   0.52044464812004     -0.51243742105428      0.95772502929739
  C   0.20467135145517      2.08518812495102      1.23895398551953
  H   -0.82427974971182      1.81998809839943      1.50198291043359
  H   0.88698857669193      1.70209951634711      2.00022324696859
  H   0.28433722202421      3.17804672693028      1.21259793596608
  C   -0.16643625179793      2.08509923502800     -1.26566821864307
  H   0.02868219290601      1.54208871563856     -2.19477932504486
  H   -1.24414339285810      2.07439645070707     -1.10092884311979
  H   0.15983509999827      3.12319932681951     -1.40146463363896
