14
Coordinates from ORCA-job run
  C   -0.21107310060249      0.01901146237284     -0.38003086562192
  C   -0.04038814583869     -0.04589681768422      1.14785751259171
  Br  1.72273556011964      0.19468240934786     -1.14256143893607
  F   -2.79460015382698      0.16874790660584      0.71591038038383
  H   -1.10766204127320     -0.07462139677190      1.45608635994396
  H   0.50303727072838     -0.94663385470885      1.44913936120712
  N   -0.95413220507489      1.13688661076334     -0.84219983955565
  H   -0.49633940414099      1.99639044819228     -0.56050793056734
  H   -1.85359444100690      1.00279309455129     -0.29992719898861
  C   0.60614114296402      1.12360255494863      1.72094515901318
  N   1.09680066682144      2.07420619407578      2.20611639165120
  N   -0.79614557653010     -1.17926464430639     -0.85728674887241
  H   -1.68793516544700     -0.92025429018712     -1.25975885184750
  H   -0.99038440689228     -1.80227967719939     -0.08535229040150
