16
Coordinates from ORCA-job run
  C   -0.10864999564107      0.08249749678404     -0.39723189213702
  C   -0.06445773700792      0.01237648999920      1.12390978606588
  Br  1.77252126023310      0.27015201717806     -1.10344664080034
  F   -2.70416279969099     -0.11151505380806      0.91662078789105
  H   -1.18976231518159     -0.07377990906159      1.34567729104721
  H   0.33570793882455      0.94231306393146      1.53913700055569
  C   -0.70131919200958     -1.19270386452742     -0.96464521073011
  H   -0.11159247435562     -2.07079476116021     -0.69168608455884
  H   -1.69554776311811     -1.23051463119960     -0.50068384669425
  H   -0.77579746543929     -1.13677047085454     -2.05383912573889
  C   -0.92423653660355      1.31754270915195     -0.82164300115156
  H   -1.80794783609473      0.99280414662875     -1.36969489432655
  H   -1.30480491591255      1.83068506705663      0.05991853077964
  H   -0.33903155483426      2.00376976420950     -1.43516193944468
  C   0.67714061179748     -1.11539963217315      1.65745770868702
  N   1.24023077503415     -2.04266243215503      2.11169153055576
