16
Coordinates from ORCA-job run
  C   -0.09505487912878      0.03939102244661     -0.38887699720561
  C   -0.11617175231786      0.07270750220585      1.12344345236635
  F   1.22140302324063     -0.07366089996938     -0.88034373968977
  H   -2.48152911129968     -0.67903067218184      1.29085652227782
  H   -1.34128636311017     -0.06468080829799      1.33022611078479
  N   -0.84731414695549     -1.05676370408595     -0.94465493197867
  H   -1.70309268276135     -1.11501722149329     -0.36663217570527
  H   -0.31313580868719     -1.89749674444375     -0.74741258860608
  C   -0.62669124886834      1.30903617449072     -0.94244536203482
  N   -1.03841518149092      2.31439446374027     -1.38735135837559
  C   0.43504149015091     -1.20586572593669      1.74237063325128
  H   1.36186974540609     -1.54329635196685      1.26842833040867
  H   0.62957028962099     -1.04861166442838      2.80579483824550
  H   -0.33363818107097     -1.98392542427135      1.66367880784630
  C   0.45394025831242      1.26931724840932      1.67938049053348
  N   0.90080454895970      2.24407280578269      2.17162796788160
