15
Coordinates from ORCA-job run
  C   1.26633287260683     -0.10734115267474     -0.03838192419164
  H   1.90841791920431      1.94265106038118     -0.52235731543643
  Cl  -2.23579234842912     -0.97812624893930      0.37479917519548
  Cl  3.12269389471685     -0.27173131054098     -0.09958652607887
  C   1.02040815890767      1.42989094528868     -0.15964384487398
  H   0.71965869106762      1.81637441667761      0.81073126355986
  N   0.74385304032648     -0.95498686597698     -1.04769045084780
  H   0.83224247604070     -0.54707193923377     -1.96881836467173
  H   -0.24225245560439     -1.12995446946460     -0.83178144241624
  N   0.87178480546960     -0.50342926895779      1.28236876744225
  H   1.09518185335678     -1.49045242178350      1.36923227601738
  H   -0.15459784584663     -0.45862199626743      1.30101778027488
  N   -0.04360536248634      1.82346491699712     -1.12623501466364
  O   -1.00432262682708      2.45689490309511     -0.70095454952915
  O   0.15778692749673      1.55115943139937     -2.31150982978041
