10
Coordinates from ORCA-job run
  C   -0.22721166433178      0.08384343294121     -0.35607963458779
  C   -0.29146705756992      0.05943289838904      1.11419095534211
  Br  1.66355922432403     -0.16177962957125     -1.19766590171590
  H   -2.75107942464156     -0.53525378735584      1.82082898826570
  H   -1.45130653027810     -0.11891939049423      1.41746463120840
  H   -0.74951401679770     -0.76684926405769     -0.79763257959955
  H   0.09400317094299      0.97110504140955      1.57455745438325
  H   0.20895101004994     -0.82139932166244      1.52113482855036
  C   -0.72358169375751      1.31909460136683     -0.94381799526892
  N   -1.13167301794039      2.31949541903482     -1.40706074657766
