16
Coordinates from ORCA-job run
  C   0.52870830695192     -0.04352478494172     -0.07871900259552
  H   1.66286158827499      1.66779956368652     -0.13415265825302
  Br  -1.78078083739572     -0.30569481595100      0.16439086945193
  F   2.59344913279458      0.01404044934996      0.17522343299562
  C   0.59000409465653      1.46158986300966     -0.11484502792800
  H   0.70776595731203     -0.51122498141320      0.86767070728104
  C   0.72345414050492     -0.78562931145372     -1.37050340501895
  H   0.00249647074342     -0.47144243276922     -2.12318161354594
  H   1.73914961340467     -0.57462278731934     -1.69644474291406
  H   0.61556662945301     -1.85677069654797     -1.19470203631004
  N   0.14958713352463      2.03798163351927      1.24400719380950
  O   -0.40308286947940      3.13997218158120      1.22430584375864
  O   0.44941725575766      1.42932942944165      2.26300917314294
  N   -0.09003574349812      2.05735520364410     -1.21008121686839
  H   0.01549952040723      3.06122959822533     -1.16594557568017
  H   -1.07643039341237      1.82992188793850     -1.14744194132559
