14
Coordinates from ORCA-job run
  C   0.52721175741073     -0.04531657179188      0.00304381159334
  H   1.69846776731661      1.64534365973364     -0.49273566586071
  F   -0.81081492353724     -0.39135607366910     -1.04336328987604
  H   1.96786326366084      0.01449302840954      1.13043410751885
  C   0.67025037743932      1.46791659432283     -0.14626252128195
  H   1.18152138574427     -0.69905315376898     -0.54430474597781
  H   0.00959325606394     -0.43257254754847      0.86280964205480
  N   0.43682179554083      2.09392682337153      1.16672518065618
  H   0.73761506917714      3.06362928369700      1.10928188454740
  H   1.09675749702516      1.60267000747236      1.77131069304226
  C   -0.28351634831639      2.10755351440280     -1.15130372559335
  H   -0.15563176408151      1.66955870701327     -2.14040994883648
  H   -1.31303856155357      1.94087678807410     -0.84221688698758
  H   -0.08386057189012      3.18775994028135     -1.20461853499893
