17
Coordinates from ORCA-job run
  C   -0.17399357412098      0.05420877795090     -0.35567009961983
  C   0.03147521088586     -0.07641255307900      1.15221272316105
  F   1.13069579887947      0.16847675127370     -0.91107240333205
  Cl  -3.67132154520146      0.43318058560747      0.91536516147943
  H   -0.96234460231259     -0.21941801257083      1.58600611646673
  H   0.62287193110315     -0.98291266004563      1.33136315381308
  C   -0.83162838492096     -1.19761085043694     -0.93586275483820
  H   -1.10102232829705     -1.91013450662428     -0.15506140645756
  H   -1.74086747819757     -0.92977019997504     -1.47191800385513
  H   -0.12987142883584     -1.66741877698757     -1.62813547396196
  N   -0.89335056743681      1.21887349194849     -0.78889129367817
  H   -0.48355930301074      2.04246853329809     -0.36231522529238
  H   -1.84833579314481      1.13604310003187     -0.42827397463040
  C   0.71897125970719      1.12435168530247      1.79214529930359
  H   0.07219939562606      2.00415760726840      1.77078698070390
  H   0.94875103741142      0.92244842208594      2.84199182377871
  H   1.65300037186571      1.36035860495196      1.27659937695918
