11
Coordinates from ORCA-job run
  C   -0.33415141482410     -0.02190884926264     -0.14118232142104
  C   -0.15381959541602      0.72663771075253      1.16531178336273
  F   0.79740465583317     -0.70345319984775     -0.49326228226750
  Br  -2.69989200006869     -1.95557816381363      1.56849213730314
  H   -0.23362599632277      1.80576561569710      1.03685015696451
  H   -1.17773755349905     -0.71778863157839     -0.09112292560618
  H   0.83087330601481      0.48046439691566      1.56493871239452
  H   -0.92040943362089      0.38081193362181      1.85859361254679
  N   -0.63303803407241      0.94302998063521     -1.26775347610982
  O   -1.59379792195856      1.68454446366353     -1.08221739076580
  O   0.05999398793446      0.91193474321658     -2.27921800640131
