12
Coordinates from ORCA-job run
  C   0.05560533709030     -0.06983728602772     -0.39048655739490
  C   -0.12379067140273     -0.00674061843411      1.07070410134724
  F   1.33803750267737     -0.46353436135946     -0.90447271670714
  F   -2.71547997297038     -0.02294780373438      1.83849779851478
  H   -1.77748780219815      0.03532270234114      1.56341917420383
  H   -0.13153150054553      0.90801464860420     -0.84728195202978
  H   0.30921238725958     -0.89739713021204      1.53830261299720
  C   -0.89041329433045     -1.04477030517915     -0.96426582036507
  N   -1.60998390671153     -1.82935277361292     -1.45968065731808
  N   0.64406369892452      1.14937500372538      1.60785287217109
  O   1.86334768755313      1.23165271417120      1.39600878484278
  O   0.03104053465386      2.00310520971788      2.25978235973805
