14
Coordinates from ORCA-job run
  C   0.20671316014088      0.05626199095920     -0.02865910992797
  H   1.34350092773187      1.84229376658711     -0.05550087557117
  Br  -1.76399721445137     -0.38480766892157      0.03767264323279
  Br  3.70623418956403     -2.23593420998465      0.23873457745996
  C   0.28259032745600      1.57489113586953     -0.03029679709096
  H   -0.14370553574098      1.96726788052808      0.89331124881751
  H   -0.22588946536584      2.01460984952948     -0.89223148007697
  C   0.75120141566665     -0.54522658002407     -1.31164084415484
  H   0.60771829710277     -1.62533147711319     -1.32110900821264
  H   0.28106138838044     -0.09904580551181     -2.19167631604906
  H   1.83201898672044     -0.37941403305528     -1.33604416910270
  N   0.84872971987777     -0.46623032687642      1.15849440782833
  H   1.68890322136502     -0.99066608662435      0.89052132715661
  H   0.24529058155232     -1.10426843536205      1.65611439569111
