13
Coordinates from ORCA-job run
  C   -0.16969069385534     -0.00021369354625     -0.41798877016260
  C   -0.20703150279402     -0.10982491765347      1.04432297059821
  Br  1.69641998996770      0.09705189561642     -1.26807868555850
  H   -2.23746792460833      0.05748080163046      2.47909027585213
  H   -1.34474276365865     -0.16349323408674      1.47463347788887
  H   -0.61064523377300     -0.85744058386996     -0.92116021454180
  H   0.22898938298221     -1.07775982185681      1.33014422939463
  N   0.28832077598046      1.04744349642363      1.74782462335554
  H   -0.37027197874024      1.18752666338744      2.51904036400672
  H   1.21482877398633      0.89408400070485      2.12125011034329
  N   -0.93822348219768      1.19537320998772     -0.90628050086372
  O   -0.40345173817306      2.29249349616059     -0.97048216521426
  O   -2.12166360511638      0.95690868710210     -1.15758571509851
