16
Coordinates from ORCA-job run
  C   -0.51091225815704     -0.03745989644728     -0.14083596224740
  C   0.15235293046632      0.07037802858751      1.07068339074315
  F   1.17449944615420     -0.21727823582319     -1.65431548114094
  Cl  -2.94059954178341     -0.44902954119639      2.41919266460114
  H   -1.75278106950506     -0.33451163839876      1.87098189123760
  N   -0.75276868758045     -1.29625348450522     -0.65583310479402
  H   -1.33314160829982     -1.19179260436176     -1.48030752580472
  H   0.20296342772596     -1.48118011282813     -1.04023541351189
  C   0.47945254669237      1.33989981165692      1.62913931575628
  N   0.72185640165772      2.38536075566311      2.11462974979873
  C   0.79218432455034     -1.06949665466793      1.64474839496050
  N   1.30064846502664     -1.99966891482065      2.15669055841441
  C   -1.20265488127098      1.13294131889809     -0.75694495290909
  H   -2.28253775355055      0.95245458295707     -0.79830227210116
  H   -1.01567302993283      2.06545494527628     -0.22544541167241
  H   -0.79279871219340      1.19571164001032     -1.76541584133019
