14
Coordinates from ORCA-job run
  C   -0.00785887077053     -0.06054401951722     -0.46440179117053
  C   -0.23794013245974     -0.03160274732636      1.02679067940494
  Br  1.87805514124045     -0.15916150223448     -0.95781155212547
  Cl  -3.13806366406338      0.28777473809764      2.78471413388519
  H   -1.32321790321060     -0.05329325231451      1.20635617254118
  H   -0.48595221223530     -0.91688342511150     -0.93347720100166
  H   0.14193405540818     -0.98496472126332      1.40521893265728
  N   -0.62818484065099      1.13448609530272     -1.14761063912255
  O   -0.03877629948544      2.20876726197215     -1.13359691031874
  O   -1.73671827189194      0.92702460796010     -1.63576515580300
  C   0.37241028134030      1.15721735561212      1.77925056262545
  H   -0.43446619405535      1.71688108215110      2.25296127424140
  H   1.04914223423476      0.81587602865019      2.56464738258971
  H   0.93147667659958      1.82654249802136      1.12422411159680
