15
Coordinates from ORCA-job run
  C   -0.18934010633062     -0.00406584568124     -0.35729426861950
  C   -0.18072404360814     -0.04887791457825      1.09378123905443
  Br  1.79808034166449     -0.03988988153951     -1.26667320857565
  H   -2.65213567721533      0.31316212413799      1.68998476869314
  H   -1.39157921853281     -0.00487193929979      1.36474437068701
  H   -0.54852240675030     -0.93800411765160     -0.79183548452194
  H   0.21040270214057     -0.99599491120854      1.47773336581787
  C   -0.88429204478009      1.19179309646289     -0.94770656832509
  H   -1.00609067999647      1.10156606538606     -2.02900519955020
  H   -1.86905179331738      1.24076159985926     -0.45313187389816
  H   -0.34660155837800      2.11721439365086     -0.73733558776403
  C   0.38214937851779      1.15291836760514      1.82439542421989
  H   -0.22581331068396      2.04061352930226      1.62622437538437
  H   0.33535201288098      0.98283582042938      2.90453937924280
  H   1.42126640438926      1.36301961312509      1.54589926815505
