18
Coordinates from ORCA-job run
  C   0.61267328967803     -0.03096600864553     -0.04749913596955
  H   1.56113681158757      1.82233938501547     -0.28492001039772
  Cl  -1.83994537731273     -0.28553571973297      0.03430655032673
  Br  3.17959067629493     -0.09862967728596      0.31949416490578
  C   0.54253050154842      1.50064090007084     -0.06767548755650
  C   0.75217200994199     -0.76971919750733     -1.35872844348723
  H   -0.19416933847949     -0.75914280520384     -1.89283429631388
  H   1.50208719567168     -0.26505635409484     -1.96487758767169
  H   1.07161160106648     -1.79546711804249     -1.17822089648661
  C   0.55404656671247     -0.74385498892502      1.20088085139631
  N   0.50098539294784     -1.31748422967249      2.23045093327222
  C   0.15244421053321      2.08264040232023      1.28724532796895
  H   -0.84800853566811      1.75440414551207      1.57209021910312
  H   0.86343850803145      1.77564314229371      2.05852056984185
  H   0.16661313071493      3.17577082320072      1.22300996179293
  N   -0.25106209237729      1.94684328534258     -1.21163536603728
  H   -0.12408178389880      2.94781615664684     -1.30686810874459
  H   -1.22820276699261      1.75287785870801     -1.02375924594287
