12
Coordinates from ORCA-job run
  C   0.35423874700407      0.26331142818786     -0.55562245459545
  C   -0.27076663537013     -0.02115322029182      0.82070871596780
  F   -0.56049962500809      0.01191371125177     -1.57376926819868
  Br  -2.70408675998281     -1.95723217783587      2.53698419078391
  H   -1.31648745624676     -0.31587174027972      0.67023736044882
  H   0.67311858505978      1.30332299479727     -0.66703280167453
  H   1.19838404446421     -0.41454711915466     -0.68957740407116
  C   -0.26723569734854      1.21575103426738      1.62378446293549
  N   -0.17001610226969      2.19754536443440      2.26198441484457
  N   0.38460732991196     -1.13737434321582      1.49579834817697
  H   -0.35022576099397     -1.62635712920936      2.01418480618107
  H   1.06650933077993     -0.79557880295143      2.16201962920117
