17
Coordinates from ORCA-job run
  C   -0.69892022645988     -0.03573721420987      0.01276313146895
  C   0.11603721029238      0.08807127462342      1.07907484485788
  F   1.80183578142815     -0.14779348803625     -0.85028235187015
  Cl  -3.25025927277319     -0.13438404756631      2.26098593566051
  H   -2.10946906366007     -0.10801944426875      1.59825878062607
  H   -0.95797598903569      0.92201410003940     -0.43386523032344
  C   -0.83641487547171     -1.22450946352519     -0.87262348381106
  H   -0.99018062662734     -2.15917048373582     -0.34222069655155
  H   -1.61666907449300     -1.08321604942682     -1.62398388882768
  H   0.17643793913508     -1.20179904398668     -1.32521235034768
  C   0.81513617496277      1.35807113177226      1.40877563898221
  H   0.22635994549601      2.20670971752683      1.05435172625837
  H   1.04966341880722      1.47464241662091      2.46742718475368
  H   1.72156489636104      1.26379703612827      0.79531279442715
  N   0.66408623232497     -1.09459971327153      1.73678646777532
  O   -0.00000119609020     -2.13584675921013      1.73798383824632
  O   1.74501872580347     -0.97221996947373      2.31244765867509
