19
Coordinates from ORCA-job run
  C   -0.01455791362020      0.00950670551927     -0.42411170106154
  C   -0.13233015538873      0.02695091868415      1.05284731346717
  F   1.34118744250119      0.18465287038065     -0.94273212523518
  H   -3.34051951236407      0.42400403136428      2.32768496573564
  H   -2.64706234280298      0.30769070396639      2.07215995655065
  N   -0.42004054323101     -1.26191003938716     -1.04052448763069
  H   -1.17271561812861     -1.62197205230446     -0.46141587430461
  H   0.36821254324036     -1.88826233255670     -0.91042194257027
  C   -0.78917903970687      1.14275542899621     -1.07605028901734
  H   -0.58757821198155      1.12279871487301     -2.14978929731391
  H   -1.85778568432576      1.00615113388114     -0.90441305179988
  H   -0.48607746921254      2.10937357003812     -0.66839341283332
  C   0.65587498754157      1.13521579425839      1.72904477279275
  H   0.26669665804595      2.11244445074899      1.42798342287586
  H   0.54041457853001      1.07852061534367      2.81836225070314
  H   1.73587274057797      1.11728101262283      1.50270483064504
  N   0.42319763475080     -1.25238579426696      1.58165954149794
  O   -0.31202939165494     -1.99188283608995      2.25452599332399
  O   1.60441929722941     -1.57067289607185      1.34985913417454
