17
Coordinates from ORCA-job run
  C   0.45496869113604     -0.07026363288388     -0.06263629304168
  H   1.32786399931297      1.64001465361677     -0.92310080998698
  F   -0.93034694232601     -0.28859762167647     -0.86884296182223
  H   2.19512491980215      0.07125925535461      0.50405676683092
  C   0.57866437785450      1.45292973919848     -0.14704482220548
  N   1.23867970730094     -0.86273771751254     -1.03827012108032
  O   1.59491119389054     -0.30608899013982     -2.07975200474076
  O   1.35465568304689     -2.07110612030482     -0.82814846968935
  C   0.00786899035339     -0.73627936644052      1.21449557839322
  H   0.78318057668970     -0.76753619405453      1.97215712244369
  H   -0.85077924906870     -0.17371032538472      1.58714206344303
  H   -0.31221027044695     -1.74696551048290      0.96479170586379
  N   0.91814935185066      2.03054022979923      1.16306271572539
  H   1.10859155066295      3.01895564658837      1.02741617393299
  H   1.79553720306060      1.55761273281406      1.38943097156767
  C   -0.66664138782285      2.12065845265889     -0.58061482547230
  N   -1.56990839529678      2.79540476884977     -0.90993279016163
