13
Coordinates from ORCA-job run
  C   -0.18441380609044     -0.00722902864278     -0.31778510438731
  C   -0.14749665685372      0.08328527563956      1.12286046091836
  Cl  1.60490876142663     -0.05220633596434     -1.22081118619491
  H   -2.50076607740665     -0.69594714516104      1.38776807507284
  H   -1.38816757982937     -0.16581912232890      1.37620195653822
  H   0.22824257370074      1.02070152999914      1.52737194304902
  N   -0.89539252834204     -1.09711948005754     -0.86563986543884
  H   -1.75632660375867     -1.16346916559445     -0.28700785975480
  H   -0.35070355352570     -1.93226242515980     -0.68705102784404
  N   -0.77254885285050      1.29718382133975     -0.86080218362779
  O   -0.22396435368448      2.34094310847016     -0.51651588793031
  O   -1.78320336047768      1.22620436650983     -1.55312999003937
  H   0.32022203769188     -0.79124539904957      1.57761066963895
