17
Coordinates from ORCA-job run
  C   -0.21325403776090     -0.01630201356296     -0.19281419438628
  C   -0.18216575167925     -0.02098519513748      1.25691841458693
  Cl  1.61268944452193     -0.07681954984137     -1.00345150874803
  F   -2.48332423540284      1.02147253061132      1.54132775159457
  H   -1.59435396178195      0.37381067798507      1.47365408168211
  N   -0.86854683246738     -1.29891845536200     -0.71534100227484
  O   -2.05945247820381     -1.19794443970811     -1.00094416541801
  O   -0.23070415127780     -2.34739372924455     -0.73522296833160
  N   -0.81932370154498      1.08791943932968     -0.86894139463164
  H   -0.16477135232558      1.85761679350073     -0.84418102531486
  H   -1.64069170951424      1.33639206482647     -0.32033266995595
  N   0.30535348674301     -1.21674003195025      1.90983116122584
  H   1.15894040358981     -1.53464047373857      1.45321714982897
  H   -0.37017914288112     -1.96340694970411      1.81810934361555
  N   0.43123384475074      1.18145151801666      1.79442770414923
  H   1.20996054647516      1.48687529415873      1.21520700536030
  H   -0.25815037124079      1.91978251982075      1.84331631701773
