19
Coordinates from ORCA-job run
  C   0.41658734318197      0.03473341506176      0.07637086530265
  H   1.91657803566020      1.24142272796904     -0.08005365145910
  Br  -1.64752346998384     -3.39602032045556     -0.15584389305740
  H   2.61928016742629     -0.05191491917084     -0.35376388432919
  C   0.78487235070966      1.50001853346690     -0.01502721015733
  N   -0.31867328692325     -0.56820492473173     -0.79615858020813
  H   -0.45399704607458     -0.12560334416588     -1.69707874769039
  H   -0.65718760486321     -1.54825654472812     -0.63688114672068
  C   0.62096736148341     -0.63693827489177      1.39659132771410
  H   1.54516504724251     -0.29859007705675      1.85536899247257
  H   -0.23683315587675     -0.40497983108899      2.03962032720561
  H   0.65002914921061     -1.71670369729494      1.26041620266478
  C   0.33808858939733      2.33063014419028      1.17270431442589
  H   -0.75153803126468      2.41783994226555      1.22000108144559
  H   0.69564272929844      1.88096185652563      2.09903277805332
  H   0.75518626549405      3.33188381776316      1.09207204896764
  N   0.48221197869879      2.15186408957822     -1.27629110619848
  O   0.34554484581226      3.38545887197412     -1.28682785445928
  O   0.51004873137078      1.46150853478993     -2.31334186397216
