14
Coordinates from ORCA-job run
  C   -0.47809871636970     -0.02793857058727     -0.21768796823322
  C   -0.12151569524501     -0.07858722090549      1.10065959253849
  Cl  1.97042205960175      0.23371986656425     -1.30765201894279
  Br  -2.95814955548456     -0.34577965335492      2.36147326345001
  H   -1.50442172497155     -0.19869276326311      1.47123857458557
  H   -0.67458785724799     -0.97914347865059     -0.70484915997063
  H   0.22258352553973     -1.04360927872220      1.47859116296297
  N   0.34801087546096      1.11378528943342      1.72494439654369
  H   0.53501952218253      0.95553206975087      2.70488871827991
  H   1.21125556682065      1.36822385094338      1.24939051229804
  C   -0.98470948881041      1.20172368609865     -0.88643969719360
  H   -2.06118171369818      1.28665518110687     -0.67605610697628
  H   -0.48679966001853      2.09116437035880     -0.51073654235782
  H   -0.83313713775970      1.13552665122736     -1.96194472698434
