13
Coordinates from ORCA-job run
  C   0.33804099656253      0.00513083342299      0.01131836247993
  H   1.66221612787223      1.58708114612587      0.24111427741497
  F   -1.03804804332698     -0.23640938525530      0.00852814799250
  H   2.77819171980788     -0.25457194800293      0.12470672853885
  C   0.58834359754638      1.49386962211318      0.06561709841243
  H   0.77851687921778     -0.47990753742101     -0.84974594624771
  H   0.36416285040749      1.88121406222892     -0.93541500128238
  N   0.86502509240728     -0.74398017390527      1.19636517776131
  O   0.91081439653243     -0.12713765293406      2.28204231272190
  O   0.79044702814123     -1.97951017581447      1.11728536298620
  N   -0.28032653661051      2.18263865775691      1.03247046521733
  H   0.06651696756926      3.13219230883086      1.11541916448386
  H   -0.10057107612704      1.73419024285434      1.92444384952080
