19
Coordinates from ORCA-job run
  C   -0.11446121464372      0.07228807104357     -0.39682340803251
  C   -0.13669289110661      0.15740568441946      1.12757219140297
  Br  1.72590338498167     -0.29352272047723     -1.09875657280150
  H   -2.36274049832110     -1.21931688810602      2.01214357683495
  H   -1.21186025019619      0.27358495879684      1.40473542283194
  C   -0.96929252179954     -1.12227936664614     -0.79814460050130
  H   -0.50219741454058     -2.06212727745683     -0.50641829554941
  H   -1.92025938815174     -1.07217649501779     -0.25437681083445
  H   -1.12305968840607     -1.12647146076325     -1.88069302233316
  C   -0.62244041574838      1.34044116141079     -1.06552230748081
  H   -0.68950201436569      1.19674160673754     -2.14651630928355
  H   -1.62773639446060      1.54535536262197     -0.67980700945035
  H   0.02308072749256      2.19172521388804     -0.86084613987879
  N   0.28637976498266     -0.97356129069331      1.86784784144543
  H   0.89740685062668     -1.56948120860579      1.32425571879067
  H   -0.60938224327183     -1.44626495934491      2.12123527462108
  N   0.54166213492796      1.40052862764974      1.68172335655499
  O   1.37920583322931      2.00903581541235      1.00828355447584
  O   0.21162623877119      1.72153516513093      2.82025753918795
