20
Coordinates from ORCA-job run
  C   -0.11926136681074     -0.04379476701757     -0.35898982159155
  C   -0.16858276343340      0.01495459966369      1.11569812444462
  Cl  1.63387833943058     -0.02783307691280     -1.09483214908320
  H   -2.61347656965551     -0.47438097738223      1.74915894993941
  H   -1.35771782514041     -0.07116107989731      1.37027228646983
  N   -0.76636857648683      1.21700007459143     -0.92119089327252
  O   -0.13327716300075      2.26929918787013     -0.89508571651853
  O   -1.93077185784248      1.10834950653494     -1.30580445956686
  C   0.40674885976317      1.25343715774017      1.77499288757105
  H   -0.08788985639811      2.16967199301808      1.44898964962339
  H   0.25208270740561      1.16672362421566      2.85545577406050
  H   1.48148662736869      1.36497113104201      1.58514136031287
  C   0.35675939148388     -1.26331009616906      1.75035558699114
  H   1.38324619579755     -1.49909732741783      1.44427014787864
  H   0.33434203387800     -1.14641706667955      2.83782969343398
  H   -0.30013505080938     -2.10664130094294      1.52235721641083
  C   -0.82337407988299     -1.24870328499814     -0.92959890565512
  H   -0.22600987944977     -2.13855836674898     -0.73547101177423
  H   -1.79121396912072     -1.33619626331783     -0.42028833739680
  H   -0.96590519709642     -1.14821366719192     -2.00591038227746
