18
Coordinates from ORCA-job run
  C   0.51670218227807     -0.05527062260215     -0.05889477264785
  H   1.59760018689137      1.72229808741357     -0.44127056838853
  F   -1.14091812564168     -0.19321367074284     -0.40259279500392
  H   2.34817192313386      0.00473051078957      0.46678709482904
  C   0.58373374870641      1.48842331251179     -0.13020481910615
  N   0.92359217020938     -0.76445348087230     -1.25686204757888
  H   0.16401283854119     -1.39399951732383     -1.48936623437732
  H   1.76583389090532     -1.26986512521260     -1.03826432313762
  N   0.31065748726004     -0.72012558979402      1.22606836720109
  H   1.17561492695552     -1.17159012333608      1.46984586491060
  H   -0.44079814684199     -1.38702609860898      1.08958020330265
  C   0.33403768747007      2.08255178276528      1.25133415843356
  H   -0.67102423524069      1.81945697739254      1.59015351755150
  H   1.05355226816745      1.69067021544419      1.97054976614105
  H   0.42348472834072      3.17631653228066      1.20701690513313
  N   -0.31390547633719      2.05021808149715     -1.16429153055262
  H   -0.40169477593134      3.04395508385824     -0.97531720426955
  H   -1.21828327886648      1.61831364453977     -1.02913158244017
