18
Coordinates from ORCA-job run
  C   -0.05372830118275      0.02154689335221     -0.44910515487721
  C   -0.26423636187685     -0.04515925269333      1.06818390148642
  Cl  1.72936896195942      0.22666564708322     -0.79684374236215
  H   -2.63010768184853      0.89188927247800      2.00800719945108
  H   -1.37488493264707     -0.18570562314403      1.21524419337932
  C   -0.55511382214792     -1.26949703381018     -1.11761388309903
  H   0.23600327958928     -1.77441838303204     -1.67173244890211
  H   -0.93844403182282     -1.96862221664618     -0.37051751255652
  H   -1.37017097719581     -1.04461557245606     -1.81009973052416
  C   -0.76000116092946      1.25301765854959     -0.98297437447078
  H   -1.81465059145051      1.19746030065754     -0.69391491826120
  H   -0.33648971144844      2.14409956443090     -0.52297639646768
  H   -0.66348506900528      1.30583866822654     -2.07121608704891
  N   0.00804911824200      1.20717395994155      1.74534757180492
  H   0.67548232812702      1.07842495483721      2.49467551714617
  H   -0.92717145534288      1.44576749878471      2.14269518241047
  C   0.42766334590063     -1.19585370051402      1.64431778125842
  N   0.97924706308001     -2.11890263604561      2.12182290163293
