12
Coordinates from ORCA-job run
  C   -0.45086841132127     -0.96956676482516     -0.13032273907212
  C   0.01121943321312     -0.35279043128759      1.22252889796999
  F   -1.81408073492596     -0.92546639868619     -0.30581373236559
  F   -1.63556558073940      1.29707959456528      1.25896634168798
  H   0.56979593243406     -1.12799313767435      1.75579557104846
  H   -0.18115596665382     -2.03070183997103     -0.12719147074179
  C   0.18112888210921     -0.36283527668678     -1.31407125086543
  N   0.69127361311519      0.05814887396622     -2.28405943827968
  C   -1.19475973054379     -0.00815288600715      2.09511412663834
  N   -1.70831342786343     -0.48317779864982      3.06401438950028
  C   0.91133035274762      0.78565250979732      1.04623090957938
  N   1.69198563842849      1.65612355545924      0.92973839490013
