16
Coordinates from ORCA-job run
  C   0.41700675880168     -0.06791924447157      0.05267605737737
  H   1.52419807682421      1.70013194775145      0.40700127729906
  Cl  -1.69924133998457     -0.16833102857787      0.58329219994619
  H   2.40545636530376     -0.04030952137586     -0.56997036550822
  C   0.53253953705716      1.45211377342431      0.03903680114984
  H   -0.19541986833215      1.86216671572948      0.74573437170925
  N   0.20175777817156     -0.79926744315424     -1.18569772530124
  H   -0.43921614917557     -1.56279955089699     -1.00677131971204
  H   1.11058348478534     -1.13402519688308     -1.46434619768527
  N   0.87315556502975     -0.70131832494473      1.27729591012687
  H   1.81882677329233     -0.99526036403809      1.08162084450574
  H   0.28470695963553     -1.50476187144415      1.46399278754485
  C   0.31726734386209      2.04727830429596     -1.33957539580368
  H   1.07537238316774      1.66108137047404     -2.02294271030053
  H   -0.66540706794891      1.77548893855736     -1.72827328948443
  H   0.39369339951006      3.14026149555396     -1.29808324586376
