18
Coordinates from ORCA-job run
  C   -0.22006753792341      0.02715271009319     -0.44048764723330
  C   -0.25481391580281      0.01919210855272      1.03476649638445
  Cl  1.58800023734216      0.02496304217176     -1.15275434329129
  H   -2.40438222526861     -0.44522840541198      2.14075565572308
  H   -1.44259966595268     -0.03608773781484      1.38508805078068
  C   -0.89015963658141     -1.18913040838781     -1.04734450297705
  H   -0.37321097578575     -2.07331324033609     -0.68006744692948
  H   -1.92360821617060     -1.21625300832801     -0.68245172818343
  H   -0.87229643515286     -1.15325011885763     -2.13811198844371
  C   0.33264901719603      1.23108307709174      1.72150935928346
  H   0.00740828228815      2.17014115435218      1.26349152480763
  H   -0.01035488646085      1.22838787513850      2.76266940461679
  H   1.43104748152691      1.21037122727415      1.71176686330300
  N   0.19307525502506     -1.25200791393730      1.56832991940953
  H   -0.51692280213034     -1.51833780558472      2.25911461114220
  H   1.08431797918604     -1.14525329948295      2.03958574406811
  C   -0.77975331796856      1.26099041453155     -0.98881018148925
  N   -1.26569863736647      2.23708032893553     -1.43000979097141
