14
Coordinates from ORCA-job run
  C   -0.22423032190766      0.00739001178408     -0.30418645685385
  C   -0.17781371367218      0.03453552767298      1.13846028151685
  Cl  1.60059066807813      0.08103249033333     -1.18446411350261
  H   -2.53245520552176     -0.64992123368165      1.47055479985395
  H   -1.47969926118385     -0.16523784506363      1.36525185442017
  H   0.14311430970579      0.99641963448349      1.54739632085576
  N   -0.85747806112492     -1.14233615200456     -0.89960724681017
  H   -1.74169398190306     -1.22476516648558     -0.37425344852576
  H   -0.31356248601028     -1.96031382718857     -0.64525580351779
  C   0.42152602848120     -1.16828525493648      1.83204329574352
  H   1.38205161241494     -1.47564926474923      1.40037932024892
  H   0.58148340696377     -0.95532612767057      2.89362068016931
  H   -0.27500196085637     -2.01641111907643      1.78572068170256
  H   -0.64085103346375      0.92170832658283     -0.72986016530085
