17
Coordinates from ORCA-job run
  C   0.48469438379793     -0.04014163305881      0.04105242086591
  H   1.66270644298672      1.66359460641188     -0.21756740635912
  Cl  -1.66929289944399     -0.14045689302570     -0.28287768020808
  F   2.48987907774131     -0.19256608908190      0.06136708747585
  C   0.61579543585162      1.46608827798856     -0.00351606231365
  H   0.01290234854095      1.84844583863236     -0.82576872921140
  N   0.76980917832844     -0.74869818288279     -1.24772496225814
  O   0.91532856529433     -0.04721206035649     -2.24206297240859
  O   0.79383387456311     -1.97215636267544     -1.24295874017144
  C   0.49322344504036     -0.84589818932443      1.31155547151216
  H   1.46046961528281     -0.71655405113884      1.78674486990196
  H   -0.32077556473542     -0.53737127126353      1.96629778748887
  H   0.35564300093069     -1.89377217832275      1.05285888179702
  C   0.20306837692528      2.12170809386643      1.30688815577743
  H   -0.83655461990346      1.89645963026753      1.55192232749712
  H   0.84067542788875      1.78634868885383      2.12822050551596
  H   0.30676391091060      3.20839177511006      1.22664904509815
