15
Coordinates from ORCA-job run
  C   -0.18634732834289      0.02841401915628     -0.24550877866032
  C   -0.32537531745515      0.16189473356784      1.19417084286362
  Cl  1.70208546422579     -0.15131648578316     -0.88372593605252
  H   -2.50717336753812     -0.89346372936317      1.38210881362349
  H   -1.56879367584909     -0.08356686016240      1.30436380280357
  H   -0.04894665030264      1.13738952069744      1.58826186507686
  N   -0.87761387944332     -1.04163368021981     -0.82778263095434
  H   -1.64096655664205     -1.29830525993288     -0.17959887952240
  H   -0.27757217320171     -1.82999800986000     -1.00507754915467
  N   0.17337686829016     -0.94822767362651      1.97658448801997
  H   0.98551594797121     -1.35816422137624      1.52911515536988
  H   -0.57074361594159     -1.64648662770138      2.01599395520391
  N   -0.59321395287036      1.36409142776315     -0.89990949160277
  O   -1.48584592972119      1.35289496596177     -1.74077826845471
  O   -0.02084583317906      2.37270788087906     -0.49189738855958
