12
Coordinates from ORCA-job run
  C   0.68391934971429     -0.04188374944885      0.02786380316267
  H   1.70941818647739      1.85663636920327     -0.20549376152809
  F   -1.23776851596377      0.11937049295494     -0.29300920794257
  Cl  2.67054358697987     -0.45545256583957      0.48194527509545
  C   0.70406858610545      1.46693377391472     -0.04148265010363
  H   0.28412315714921     -0.59775881688662      0.85191881402029
  H   0.05008048018385      1.76603901987877     -0.85593715978338
  N   0.63476036003656     -0.75356720629215     -1.26495198853394
  O   0.85902788384103     -0.09645823240134     -2.27788226868775
  O   0.41814829881661     -1.95682759533658     -1.22873079451101
  C   0.17507266156409      2.02073451656031      1.20042343445668
  N   -0.21532403490459      2.51490399369307      2.19020650435527
