17
Coordinates from ORCA-job run
  C   -0.18448325955415      0.00554602466029     -0.41886342231258
  C   -0.24982198661469     -0.00713626200438      1.03106497430156
  Cl  1.67004757504956      0.03384560524028     -1.12680989861783
  H   -2.46079821246681     -0.15572590986989      2.05480060351655
  H   -1.49221050629026      0.01692812436892      1.36581480439957
  H   -0.52877165442431      0.96024327613195     -0.82427580063020
  C   -0.83875402272541     -1.17561765891926     -1.08819653934536
  H   -0.36302827531785     -2.09240569773777     -0.74416264733846
  H   -1.88888619035913     -1.19935972250380     -0.77127181777177
  H   -0.78344191486874     -1.10887520015895     -2.17718921714073
  C   0.32697325202630      1.20027864982606      1.73093557079848
  H   0.07364162753190      2.13007416555571      1.20774649488860
  H   -0.09664930811614      1.25597136563233      2.74242568042900
  H   1.42246255971398      1.14896851766874      1.80803339235161
  N   0.10904134527672     -1.28123513930987      1.62532571491056
  H   -0.58319981257547     -1.45824724132041      2.35808800011949
  H   1.02479878371451     -1.22576289725995      2.05945410744148
