13
Coordinates from ORCA-job run
  C   -0.21876947794246      0.06909990065984     -0.14473829746496
  C   -0.38820177555784      0.35844898650517      1.33724012547920
  F   1.10511665451939     -0.37620107451580     -0.38954453471575
  F   -2.32382517436967     -1.68145617614613      0.63913190801942
  H   -1.41090787945406      0.73497553793008      1.44331339002803
  H   -0.93343042437336     -0.72340272029887     -0.38293482315331
  H   -0.35643203372086      0.96531851231736     -0.76604239604414
  N   0.56135522459396      1.36328151870434      1.85617869453143
  H   0.80609442591175      1.99874503311468      1.10234774476428
  H   1.41066659252827      0.86313860413567      2.09254367549831
  N   -0.31384111882949     -0.85802493399293      2.12786526101545
  H   0.49806530141810     -1.36829606295148      1.78428787070158
  H   -1.14343031472374     -1.38237712546191      1.75272138134042
