17
Coordinates from ORCA-job run
  C   0.87081805280387     -0.04260286329749      0.01917593587167
  H   1.63266293998208      1.72817135099531     -0.81273040458261
  F   -0.56108799512056     -0.53490526766086     -1.13964221935802
  F   2.49000243505220      0.06904232224378      0.85319617146896
  C   0.78772426213235      1.47561339144811     -0.15177710985725
  H   1.39298580188848     -0.61865280963965     -0.71592261910316
  C   0.15486716320194     -0.69922991455910      1.16671807080618
  H   0.66810957721707     -0.49650524787414      2.10485878249745
  H   -0.86872030157637     -0.32987031410498      1.21677040744164
  H   0.11111350698388     -1.77467958382644      0.99126775232840
  N   0.94984794665925      2.09888062118175      1.17375205163488
  H   1.10070668318442      3.09278391444487      1.03436162569372
  H   1.80978219272437      1.68817775461613      1.52779444574757
  C   -0.49198360667267      2.01120055496684     -0.77421568585845
  H   -0.66062874236582      1.56446851588927     -1.74876047070973
  H   -1.34368031404532      1.76446047280947     -0.13972070215121
  H   -0.41967960204916      3.10582710236710     -0.85471603187008
