15
Coordinates from ORCA-job run
  C   1.16540757315120     -0.06525921300606      0.20031284941013
  H   1.70424973436435      1.86382446133826     -0.53454127169933
  F   -1.04979286552171     -0.29629375087627     -0.95307398965213
  Br  3.12402270253437     -0.21693355894500      0.58812187239559
  C   0.85119363731010      1.41636866967776     -0.01403587258820
  H   1.00059073136929     -0.59659066971819     -0.72866897083408
  C   0.39771623380217     -0.72802956540827      1.32149712058952
  H   0.65405127043011     -1.78847413562595      1.37449988956391
  H   0.61666701118389     -0.26611961549670      2.28632534434594
  H   -0.64753940398916     -0.63883741603494      1.02015257508175
  N   0.73613091458884      2.11735275962606      1.27457054667839
  H   -0.15040117772047      1.84075980337292      1.68577443829177
  H   0.63867200556257      3.10547180578359      1.06375981410621
  C   -0.33108260195044      1.70236042450424     -0.88007688719827
  N   -0.98417576511509      2.51530000080856     -1.44104745849118
