17
Coordinates from ORCA-job run
  C   0.18808718224439     -0.08749404688724     -0.12777082511014
  H   1.26699129118010      1.51416739881963     -0.96356726590149
  Cl  -1.34812964366022     -0.44799045913359     -1.06774289838828
  H   2.55545102310016      0.10932989418420      0.35717159679268
  C   0.50431328756250      1.42748894403246     -0.17904274926353
  N   1.24928865600649     -0.85812279282389     -0.90697318875719
  O   1.53784703713995     -0.40314777681756     -2.02491529592615
  O   1.36465654130953     -2.05337077124758     -0.59781685681602
  C   -0.01008710517035     -0.66115768936435      1.25096187536293
  H   0.95146837770335     -0.65896256262116      1.76127765929867
  H   -0.71906652041564     -0.03871149027343      1.79769650018503
  H   -0.37718303526235     -1.68246029175105      1.16736867367564
  N   0.96002629298121      1.91796701219289      1.13015996640923
  H   1.17719451318514      2.90566792965228      1.01796370912389
  H   1.85409139881715      1.41164574831375      1.22463420886766
  C   -0.64314235802395      2.25287554882689     -0.57675288238538
  N   -1.48349693869743      3.01636540489777     -0.87844222716756
