14
Coordinates from ORCA-job run
  C   -0.16197917902271     -0.04452993583756     -0.26369162217032
  C   -0.06465757168229     -0.12862420257906      1.17725283052328
  Cl  1.45951432062263      0.08277336554055     -1.25848639495116
  F   -2.44897410723911      0.59998765765079      1.51497931868958
  H   -1.33700650765760      0.05112337266601      1.44173085696961
  H   0.38758645291342     -1.06632775236680      1.50384254021484
  N   -0.82266478817875     -1.24980741715156     -0.87141360442336
  O   -1.66455699366342     -1.03874218391094     -1.74327397691231
  O   -0.48180157215383     -2.35973971459048     -0.47446737703419
  C   0.54297893611584      1.11196845489534      1.80471054879378
  H   -0.07753668009967      1.97828876871241      1.55915801659771
  H   0.53051041988103      1.01830628944148      2.89458784888095
  H   1.57501873128961      1.31322878308420      1.48777506132780
  H   -0.73354146112515      0.80946451444562     -0.61542404650621
