10
Coordinates from ORCA-job run
  C   -0.11579388239005     -0.18059447539499     -0.32371108851111
  C   -0.07387604948658      0.04210724275863      1.18120810247270
  Br  0.87416602139589      1.13409566241735     -1.41213253568028
  F   -2.66009296128996      0.52374852712329      1.41908061258723
  H   -1.66124090635184      0.44481715074074      1.44946130631289
  H   0.30250514432469     -1.14299460966443     -0.63606849119296
  H   -1.13244534493100     -0.10236299451313     -0.71265979503743
  H   0.00180201010371     -0.93162600038366      1.67932017765289
  C   0.91254710352267      0.91527427092577      1.70563883330435
  N   1.68499886510245      1.67152522599046      2.18847287809172
