11
Coordinates from ORCA-job run
  C   0.67249471222109     -0.05861501119473     -0.02219421186100
  H   1.73135745884600      1.81049901148511     -0.04623884801817
  F   -1.10539656695656     -0.02331063882143     -0.01724877437142
  F   2.42155500781160     -0.19612823163867      0.09386865749764
  C   0.69994261117290      1.46229262865452     -0.04282351323189
  H   0.61080145323746     -0.58421228543096      0.91277826460809
  H   0.19487045845482      1.80792245330004      0.86040054677244
  C   0.67758211892613     -0.81601068027447     -1.25856404828955
  N   0.68969414738532     -1.43341688806117     -2.25710679354672
  C   -0.00876332515860      2.04154481791552     -1.18352022006179
  N   -0.50467807594017      2.59117482406624     -2.09399105949762
