13
Coordinates from ORCA-job run
  C   -0.40337828628257     -0.13577328636518      0.19536168790836
  C   -0.75642410305637     -0.33760177019614      1.58121679560942
  Cl  0.32219791007556      0.23879198541430     -3.44078278478497
  H   -2.67690123650585      1.20478074112326      1.32931640000556
  H   -1.87046497988546      0.29306673620945      1.59069172846741
  H   -0.19749830636658      0.29699324517396      2.26610113402785
  H   -0.78594566407450     -1.38036090174792      1.89880340009568
  N   -0.58951118758452      1.09878070591546     -0.27882020297416
  H   -0.49526431985773      1.21035201497926     -1.28636899385389
  H   -1.38833666790753      1.56069859263111      0.20085824227917
  N   -0.08204499785613     -1.13243183088591     -0.64053109116031
  H   0.12922418858598     -0.89500437375969     -1.61848519153797
  H   0.31150765071567     -1.96708185849198     -0.24517112408216
