17
Coordinates from ORCA-job run
  C   -0.13332642240731     -0.07504920133453     -0.36351330758664
  C   -0.30748916868554      0.00302103917396      1.09285482542979
  Br  1.83353661395665     -0.08189125709940     -0.98779960117808
  F   -2.35306382861294      0.28296429345617      2.43729591190112
  H   -1.50935283681318      0.02950638602036      1.48188669096376
  C   -0.69047686754885     -1.27788163166893     -0.96627592934044
  N   -1.13104463126229     -2.25762285788176     -1.44518789484429
  N   -0.79518087685127      1.14217401117207     -1.03279819335804
  O   -0.11962296186788      2.09630876766936     -1.37144215858354
  O   -2.01513675810750      1.04182521533400     -1.11990930089764
  N   0.11759964931382      1.30192765135798      1.58216085851371
  H   1.06178387136797      1.26202502097211      1.95457086700617
  H   -0.53478844392153      1.51691287547259      2.32963784056905
  C   0.26671153849907     -1.18953720536101      1.83565523460516
  H   1.36512314304944     -1.15820724602585      1.86759145816071
  H   -0.03809837144611     -2.14465948104684      1.39678136332913
  H   -0.13259364866255     -1.14665638021027      2.85105133531006
