11
Coordinates from ORCA-job run
  C   -0.37403541818037      0.02577000686775     -0.14807710974388
  C   -0.10036970902896     -0.08335545504469      1.18673570152518
  Cl  1.67945457196449      0.23029842934288     -1.73703287766535
  Br  -3.03641048622286      0.14836542648172      2.17795116832475
  H   -1.56012844427538     -0.03573002123856      1.30702169539770
  H   -0.60513026704093      0.99052384381326     -0.57779192008270
  H   0.07667527148651     -1.07240897005793      1.60539577781454
  N   0.40444677778966      0.98324395410610      1.96712614665950
  H   -0.16641258740263      1.12636478374280      2.79253931620085
  H   0.43487697024128      1.83581568280941      1.42357385330878
  H   -0.65611667933080     -0.85246768082273     -0.71029175173940
