15
Coordinates from ORCA-job run
  C   -0.31790851844729     -0.00006255317763     -0.23972419962729
  C   -0.21170447881573      0.15115715182293      1.20302771496733
  Br  1.65771717967697     -0.17760348621378     -1.20261173954722
  F   -2.51472242195649     -0.65527921464965      1.81979050166530
  H   -1.47142034549145     -0.02124423397731      1.53057126139716
  H   0.20328965676171      1.12040652258474      1.49082993229200
  C   -1.03030224401649     -1.25021029648361     -0.71919734755852
  H   -0.48896659444562     -2.13074002568040     -0.37349977805157
  H   -2.01290566086413     -1.24089458233163     -0.24012324123320
  H   -1.10412738909982     -1.27912577741781     -1.80629476451368
  N   0.38210044708504     -0.95189311506075      1.93670761586945
  H   1.13224227093974     -1.37667867258665      1.39835421206607
  H   -0.34663502666197     -1.63532173561177      2.10268083007807
  C   -0.81956416250182      1.20511774361716     -0.88373358590753
  N   -1.26753271216265      2.16298227516614     -1.40010741189638
