15
Coordinates from ORCA-job run
  C   0.54434185113797     -0.02490520235554     -0.00629150798540
  H   1.47996491806772      1.83410754167209     -0.44473686994878
  Br  -1.93157095548514     -0.23205025286499     -0.41079388608237
  Br  3.01760164171438     -0.13465459892723      0.45351503638900
  C   0.52252278902376      1.49072206256664     -0.05756243133903
  H   -0.24992016919790      1.79748490262282     -0.76028572573036
  N   0.78083531845121     -0.77647561766619     -1.27472364375427
  O   0.94240156176765     -0.08936387667454     -2.27660766377015
  O   0.79511409699566     -1.99771398259843     -1.21911604348501
  C   0.35347870904790     -0.80686171002288      1.17938255178546
  N   0.18795137463619     -1.38517994758156      2.19325446561472
  C   0.25894921512130      2.07585055987235      1.32223980977646
  H   -0.70588420229820      1.73875917946524      1.70550447057896
  H   1.04206253861695      1.77931112185997      2.02253300814706
  H   0.24473131240057      3.16766982063218      1.26239842980368
