13
Coordinates from ORCA-job run
  C   -0.15314128447184     -0.07933997707831     -0.41889229411395
  C   -0.26196524735640     -0.03002524304973      1.05132524718119
  Cl  1.65154625927166     -0.16288245212859     -1.06064926390072
  F   -2.31221131220821      0.46077744669742      2.35344974161219
  H   -1.46135808845319      0.06778084381934      1.50881914271294
  H   0.15378641435779     -0.95654858638691      1.47121490864573
  C   -0.77058111740810     -1.28626683767280     -0.97201022024788
  N   -1.26299737902622     -2.26975740757365     -1.38595992454862
  C   -0.69382647455650      1.11687518718734     -1.06668563715249
  N   -1.14452821449579      2.06150293486392     -1.60022816549176
  N   0.29456354597361      1.20833158455333      1.56735947160625
  H   1.21522044436545      1.07242964693390      1.96506789963504
  H   -0.35063754599226      1.50472285983474      2.29113909406207
