15
Coordinates from ORCA-job run
  C   0.50145990673643     -0.01737130791235      0.02075628689304
  H   1.44836155256432      1.86013207123494      0.54950003756007
  Br  -1.80296286138552     -0.39380847331668     -0.18188797344011
  H   2.17197293747795     -0.06441465897475     -0.55914661530063
  C   0.49611663223714      1.50087393920667      0.14137425189408
  H   -0.28236450987276      1.72757504838240      0.88226667979661
  C   1.15813035505821     -0.58818715072541     -1.16469418759689
  N   1.15357177806263     -1.22854511324549     -2.18470857463968
  C   0.75179717658370     -0.75928292887327      1.32605906092749
  H   0.52616389883188     -1.81875330081476      1.18955088650492
  H   1.78393936022301     -0.65009618797207      1.67040880162885
  H   0.08441869452068     -0.36333228184762      2.09351386601507
  N   0.27332585611464      2.12311404050189     -1.16254648926611
  H   -0.10004446852389      3.05535708841226     -1.02140713089306
  H   -0.45107630862841      1.58129921594425     -1.62378890008366
