17
Coordinates from ORCA-job run
  C   0.58607721481298     -0.03201802085115     -0.02327622315938
  H   1.73704631290503      1.77647996319622      0.08011564784907
  F   -1.17850098658769      0.11616111511076      0.05774321344060
  F   2.43743704440592     -0.15141829030113      0.06322351423371
  C   0.69338019741380      1.49428453756802     -0.02927923481360
  C   0.62684918338714     -0.79363207201883     -1.33331425513476
  H   -0.38584708998273     -1.00104728364148     -1.67527506230239
  H   1.16073370703217     -0.19585654280309     -2.06791313512626
  H   1.17708683207772     -1.71907609585737     -1.17658995240046
  C   0.58287976818557     -0.81215125902700      1.19962570910659
  N   0.54222959763439     -1.53568956272834      2.12463907793498
  N   0.03751556536571      2.06466642818593      1.24236814990655
  O   -0.84484476021627      2.91126164814760      1.11403294801357
  O   0.50540138491257      1.69816229569471      2.31512971903551
  N   0.11396032653246      2.02818033490651     -1.21052704277744
  H   0.13624386206908      3.03827844649887     -1.17631686492666
  H   -0.85200815994790      1.72096435791976     -1.21214620887962
