14
Coordinates from ORCA-job run
  C   -0.17097357164010     -0.07431605632725     -0.45103837868364
  C   -0.63128629892610     -0.65140393009922      0.90246927235720
  Br  1.81944123745107      0.14142084596036     -0.66377607351040
  H   -1.64752159142459      1.13786625400472      2.69135499714580
  H   -1.32323768680728     -1.46961671274624      0.67512578578703
  H   -1.18972336065798      0.15083537230470      1.50047024419124
  C   -0.55652473867511     -0.95344883235840     -1.55791183187374
  N   -0.88466931765156     -1.68918808529456     -2.41519729146963
  C   -0.71338406097584      1.26336725452760     -0.71924010319797
  N   -1.16413610301574      2.31244977027753     -1.00017455230992
  C   0.45074421152702     -1.12569832118516      1.85475599360638
  H   1.08785850507060     -1.91754842399381      1.45053207976001
  H   1.06562681525517     -0.28214549120710      2.17314267948088
  H   -0.05907403952956     -1.48957364386314      2.75060717871673
