14
Coordinates from ORCA-job run
  C   0.66495149065057     -0.06869851327308     -0.05276704167652
  H   1.67627010967104      1.81240056758877      0.19383144396956
  Cl  -1.67346860721939     -0.25650163914442      0.29314016195966
  Cl  2.91656559319896     -0.26095397711369     -0.11861960719146
  C   0.67420457911345      1.44240541225991     -0.00086969003762
  H   0.68501734791309     -0.58353805246422      0.88997202324027
  C   0.49625177440765     -0.79912950126845     -1.27363650825446
  N   0.43189708792931     -1.43153863600933     -2.26427459985010
  N   -0.13203064606700      1.97887081057074      1.16250882883407
  O   -0.94736378011293      2.86324080569976      0.95652021277411
  O   0.20376851317559      1.51959027957351      2.24460537162353
  N   0.24585296090552      2.16242772310419     -1.24347454459492
  O   0.72975386143125      3.28908919543340     -1.35093239245324
  O   -0.52832028499713      1.62804552504290     -2.02522365834289
