17
Coordinates from ORCA-job run
  C   -0.53400544666923     -0.07109686612004     -0.21017982359507
  C   -0.10942684547485     -0.17218594710948      1.08539628768750
  F   1.61900937647947      0.65952972589417     -0.89481305713535
  Cl  -2.74170077034297      0.35179834186436      2.41239104453113
  H   -1.51757459675669      0.03749223121765      1.60856094053794
  H   0.07698826617305     -1.17923288326472      1.46677465141607
  C   -0.90495755887955      1.22714458173064     -0.84210510135784
  H   -0.46981143410683      1.26923038131226     -1.83793734150072
  H   -2.00183255157735      1.29655541614300     -0.89995414845905
  H   -0.51638757648849      2.06915273574460     -0.27655095013385
  N   0.70167947822173      0.86365710214717      1.65638745404359
  H   0.14419455985486      1.64713551935483      1.97590401757746
  H   1.26714331582558      1.12548109944741      0.82638801868411
  C   -0.82993220979858     -1.29327461814442     -1.01152227552848
  H   -1.76970246685473     -1.22068416602354     -1.56836309233199
  H   0.00070828917188     -1.35107208585220     -1.72310799115682
  H   -0.83269182877727     -2.19869056834169     -0.39906863327862
