17
Coordinates from ORCA-job run
  C   0.66362036534813     -0.05953136363960     -0.00363139970162
  H   1.62393954910905      1.81621761919891     -0.37812081781691
  Cl  -1.72886663498074     -0.19230610965565     -0.26248919030155
  Cl  2.97965162858372     -0.08107170448854      0.23129537668884
  C   0.63690796335659      1.47987789522246     -0.06598939813693
  C   0.78041507292397     -0.84514665402886     -1.21162917480407
  N   0.89923587198265     -1.57349383925609     -2.13085242122891
  N   0.51632345958159     -0.71075439410169      1.27012111501922
  H   1.32322478509667     -1.29553930691548      1.43267699189932
  H   -0.33093925348119     -1.26011206998720      1.26067053908605
  C   0.26549234837217      2.09111948203554      1.26059051247654
  H   -0.73493737348541      1.77894895984665      1.55382142578550
  H   0.98027990123259      1.74689643883026      2.00664324093658
  H   0.30143113849888      3.17843243534528      1.18744388239471
  N   -0.21586228060268      2.01216981281469     -1.19463053058823
  O   -1.02390574869468      2.90292602487057     -0.95344799521155
  O   0.05496920715869      1.58707677390878     -2.31353215649699
