17
Coordinates from ORCA-job run
  C   -0.14909152731250      0.04240603439986     -0.38913138757803
  C   -0.15730310867057      0.15989904663651      1.12357396464160
  Br  1.71345144978668     -0.05896514178457     -1.06680911470275
  H   -2.81340065562945     -1.47433543379808      1.48879209746393
  H   -1.21975382127889      0.25545289525491      1.39733661095206
  H   0.39764897237486      1.05925168906123      1.41426624678653
  C   -0.96428344144495     -1.12603386242041     -0.89146813072907
  H   -0.40631524048839     -2.04995861414106     -0.73595465659048
  H   -1.87768338819477     -1.19535041859953     -0.26395110414117
  H   -1.18387216727592     -1.02204789302143     -1.95773054962101
  C   0.34603347263733     -1.08940701327454      1.83425795490576
  H   1.29613352056858     -1.45324571659012      1.43513195616483
  H   0.48245855102865     -0.86542806620505      2.89642864483607
  H   -0.43835956415591     -1.84853391500273      1.76656242350784
  N   -0.77192656036065      1.32216649097235     -0.96709203288438
  O   -0.17175177793823      2.00169826051598     -1.79392161294024
  O   -1.90101471364588      1.55934165799670     -0.54946131007147
