17
Coordinates from ORCA-job run
  C   -0.25602012521769     -0.05429329532421     -0.40327941558380
  C   -0.59765247749835      0.23228785404750      1.07928232080553
  F   0.94074652218246     -0.78871342617099     -0.48636450210449
  Br  -2.08414224061770     -2.93946734244541      2.26403023529366
  H   -1.60892751731124     -0.14528602220664      1.27454075165488
  H   -0.59996249439137      1.31790346034358      1.24012707200685
  C   -1.32584141276442     -0.91631783415741     -1.04475319705949
  H   -1.49012754102015     -1.80812951917011     -0.43567227484774
  H   -2.27180307695271     -0.36965473433140     -1.09638642100604
  H   -1.02265135397042     -1.20125116832251     -2.05681706602077
  C   0.00059143989381      1.22944566488911     -1.17139707011325
  H   0.25241319399390      1.00979556727951     -2.21281662709969
  H   -0.88289390010609      1.87310773674674     -1.14875401113541
  H   0.83607458663684      1.76278911783180     -0.71075512153658
  N   0.38676346443410     -0.35712771485253      1.99028312551128
  H   0.30844312819496     -1.36346625147940      1.86450268816712
  H   0.01029980451405     -0.21884209267767      2.92372951306791
