15
Coordinates from ORCA-job run
  C   -0.21010313479499      0.02832801917967     -0.47687990934264
  C   -0.25645043629994      0.05854004146546      1.09793230192473
  Cl  1.10361078391332      1.06275717727592     -1.16962642117842
  Br  -2.46896319846155      2.19832042026181      2.38033611097566
  H   -1.24575499368714      0.46777640360376      1.39407092352259
  C   0.02692944981655     -1.31820282348845     -1.01083435685793
  N   0.22026524520975     -2.38661272213583     -1.46183216950635
  C   -1.47121485424862      0.50980693831910     -1.05191899964380
  N   -2.47257850429286      0.83719932598080     -1.57293794729765
  C   0.74764428033846      1.00289662361492      1.75819814814109
  H   0.56347460432618      2.01939713546969      1.41665780015197
  H   0.53522306869149      0.99058232836134      2.82733366284002
  H   1.78153811213325      0.70610070126637      1.57289843015604
  C   -0.11508754971532     -1.28787550832197      1.64002910520965
  N   0.01340712707140     -2.35492406085265      2.11704332090509
