13
Coordinates from ORCA-job run
  C   -0.21678305655459     -0.06779834605279     -0.45066688311538
  C   -0.09940942065106     -0.00764730082883      1.09335418283883
  Cl  1.22597812322868      0.74190756312096     -1.19367112341016
  Br  -2.08426201949735      2.16809924651570      2.62198034846047
  H   -0.99306726350176      0.46275411442489      1.55120837043364
  H   0.76580845173708      0.58151389465345      1.38102160603433
  C   -0.24342439469851     -1.42564767561264     -1.00949656238581
  N   -0.22360469144384     -2.48215098958960     -1.52398474345413
  C   -1.40514398637128      0.63711544430956     -0.94264710553567
  N   -2.34533069241443      1.16593641738744     -1.40875429299875
  N   0.06607919714810     -1.35488957328178      1.68417368237853
  O   -0.87146750889974     -2.13885853945523      1.53829078191202
  O   1.10298726191873     -1.58738425559113      2.30611173884205
