12
Coordinates from ORCA-job run
  C   -0.09985015277937     -0.00087640324036     -0.39593311039821
  C   -0.07553501940722     -0.16509555381760      1.05808415336048
  F   1.19110646738272      0.26475329318152     -1.02212021978419
  H   -2.28406214225539      0.19205484083827      2.05825199347066
  H   -1.33654709198350     -0.16539280570093      1.51233326073737
  H   -0.45419025555356     -0.90799189968588     -0.89793080239184
  H   0.41226655783180     -1.10748664768938      1.33381698679559
  C   -0.93286192908688      1.14259343968260     -0.81389466304935
  N   -1.59452540759812      2.05075561314742     -1.15554381639222
  N   0.40643150810957      0.97278314316887      1.81776246279300
  H   -0.41942428241635      1.47144491833843      2.16038955037188
  H   0.95992174775629      1.60254806177705      1.25098420448684
