16
Coordinates from ORCA-job run
  C   0.60730468609020      0.04880023256408     -0.07122716356245
  H   1.68881271049793      1.86867678997731     -0.33980639818043
  F   -1.37342797011904      0.04065191061974     -0.38316337764630
  Br  2.72826755088102     -0.39201031186504      0.65065487103660
  C   0.65753808828504      1.57424776764009     -0.13898664547083
  H   0.18629707019370     -0.48176222691498      0.75881295644220
  N   0.68341673619613     -0.78089524217936     -1.29253746940683
  O   1.06656991125591     -0.24277581672009     -2.32655698432384
  O   0.38672610814017     -1.96473677776487     -1.17169127159835
  C   0.24631906631147      2.05393801817086      1.25622208439890
  H   -0.78538683279391      1.73861371468641      1.42139866730140
  H   0.89105603951980      1.64114390633884      2.03714837072223
  H   0.30288476445556      3.14676324844370      1.30702678832915
  N   -0.17984247672516      2.12833920219116     -1.20519480456948
  H   -0.37737006912255      3.09261218736606     -0.95937582761024
  H   -1.04217538306626      1.58569339744608     -1.14972379586176
