14
Coordinates from ORCA-job run
  C   -0.17777911530458      0.03138183097247     -0.35387126159697
  C   -0.13113912314570     -0.11467782333084      1.13101753699224
  Cl  1.48607459103898      0.22762250745842     -1.10261429999748
  H   -2.49828090747895      0.60367335364608      1.45140377311748
  H   -1.34712318037912      0.05851724000077      1.43220646934651
  H   0.30854821064976      0.80169347566758      1.53599988470286
  N   -0.75944515947358     -1.24892024132129     -1.00901813263781
  O   -0.72342795649381     -1.32043014804128     -2.22924150048971
  O   -1.27783093791056     -2.06977681337448     -0.25744514856894
  N   -1.01577809902405      1.09654284343208     -0.78891057913266
  H   -0.50237218456963      1.96692861190035     -0.73883749745130
  H   -1.79110604866055      1.13202919677997     -0.09584507961273
  C   0.53143821817580     -1.26713098525560      1.67593862454229
  N   1.05552169257600     -2.19061304853421      2.18708721078621
