16
Coordinates from ORCA-job run
  C   1.08073256924412     -0.05451603518749      0.13685917853625
  H   1.47562836747718      1.94137894215457     -0.54340489637858
  F   -1.55929218299358      0.36154738883004     -0.08277718272521
  Br  3.01999820531102      0.02861953177159      0.56839207314268
  C   0.62489411975677      1.41216098263067     -0.10294828107000
  N   1.03267033287820     -0.76764704574350     -1.20616321055361
  O   1.42486610030784     -0.12720922582423     -2.17559927503316
  O   0.64819171785464     -1.93103727823295     -1.22118922500288
  C   0.41689279240690     -0.86608360288295      1.21861551915267
  H   0.89259027916774     -1.84311774439559      1.29218490424081
  H   0.52340294299499     -0.33707333037848      2.16662463567464
  H   -0.63640281108560     -0.93121411729442      0.95051924449823
  C   0.33903468115191      2.03411172568043      1.19016503945469
  N   0.18341287896326      2.56634166149711      2.22540773720527
  C   -0.51445951269057      1.61176611670049     -1.04170460907410
  N   -0.90982048074479      2.21316203067471     -1.98202165206769
