18
Coordinates from ORCA-job run
  C   -0.06476985903382      0.13009936295320     -0.32683221124693
  C   -0.27911856368553      0.17057226165132      1.11664806518598
  F   1.27893420170392     -0.15939388406935     -0.74763379968628
  H   -2.42092660125506     -0.29428663546404      2.04598704906443
  H   -1.57318588826614     -0.08294314200731      1.42419234338299
  N   -0.82460851346834     -1.09094296128904     -0.84901718930019
  O   -1.94240143953317     -0.90618390936769     -1.33451608531356
  O   -0.31420460025988     -2.20049884402980     -0.68475490030332
  C   -0.49832644310620      1.35529883270074     -1.08341312454543
  H   -0.38918702149102      1.18778927567774     -2.15757427537082
  H   -1.53326428781826      1.59876273172719     -0.85220805281357
  H   0.13433542778396      2.17905521220724     -0.75922267464122
  N   0.38676030109610     -0.87689669293480      1.86934136827077
  H   0.90298086628626     -1.49027159708670      1.25149281864353
  H   -0.34707951886426     -1.43508824103500      2.31668275039296
  N   -0.14123493534069      1.48881932383817      1.69665605743711
  H   0.73064739063240      1.50068799052768      2.21874420159514
  H   -0.89002051538028      1.56365091600045      2.39178765924841
