13
Coordinates from ORCA-job run
  C   -0.73466586235279     -0.34598057322308     -0.17325849958390
  C   -0.35209755831360     -0.41960644492816      1.14123947950173
  F   -0.67228810719852      1.33756908395610     -0.91235900773921
  Br  -0.23729806199935      2.76126885476488      2.14263008514227
  H   -0.31673215010724      1.55899043484761      1.25389853554879
  H   -1.10608288281208     -0.45258663483913      1.91731186017173
  H   0.68785868672476     -0.50698114521364      1.41056203805806
  N   0.28816195824489     -0.74862062577233     -1.18363006787427
  O   1.47483499021584     -0.65692857124383     -0.87907740995056
  O   -0.11420993242022     -1.14725751358931     -2.27546220132038
  N   -2.03814987800356     -0.68423059590161     -0.58336465959138
  H   -2.25196680118211     -0.09075302663451     -1.37551084447997
  H   -2.66194440079600     -0.43566324222299      0.17422069211710
