11
Coordinates from ORCA-job run
  C   -0.30823669547793      0.00903015361023     -0.20281336982617
  C   -0.14992792032420      0.15162756852618      1.21918340363740
  Cl  1.37645673543178     -0.28340879728386     -1.26198107255921
  F   -2.52990951708214     -0.48783303290234      1.73997605971439
  H   -1.48048911152530      0.02599899900394      1.52177729166769
  H   -0.84690397411271     -0.89279421497110     -0.48494763639860
  H   0.33030729030894      1.08819959132054      1.51705976726616
  N   0.38721290407291     -0.99621358102857      1.94627606799035
  H   1.10356515150937     -1.45305019999156      1.38874592648339
  H   -0.38010623796987     -1.64723553896089      2.07050729883032
  H   -0.69831862483086      0.89238905267743     -0.70637373680573
