15
Coordinates from ORCA-job run
  C   -0.24774024339736      0.08666415974144     -0.37717393228326
  C   -0.09063900210157      0.01842420296417      1.16859162260185
  Br  1.61682967881368      0.15579969109803     -1.18273523436974
  F   -2.80893187267350      0.36824687481187      0.70588185678820
  H   -1.16374626504889      0.02406466455688      1.45098305338809
  C   -0.82418046720665     -1.17237361663560     -0.86259763532725
  N   -1.24262664456134     -2.19392425335265     -1.26470086814830
  N   -1.02341873908777      1.17434840874365     -0.84205810373538
  H   -0.62433717126300      2.03753488536401     -0.48314440286706
  H   -1.95304869815044      0.98271174938373     -0.29064542563914
  C   0.55533725228124     -1.21913473258358      1.59955969618641
  N   1.09460553648388     -2.18623086279177      1.99486978856829
  N   0.60490510578146      1.19323165529531      1.72652707973145
  H   1.43620951977092      0.88511959403825      2.21560617965276
  H   0.93771201035932      1.77021757936625      0.96164632545308
