12
Coordinates from ORCA-job run
  C   -0.04157239665128      0.00653320577207     -0.36748480119032
  C   -0.08066529016695     -0.09182269983829      1.09177889705662
  F   1.28132154956635      0.20082293890524     -0.95291557333431
  H   -2.31978029105524      0.34878875062039      1.99177365631287
  H   -1.35870763552218     -0.03988875558438      1.49031235179701
  H   -0.40769431514039     -0.90998512943165     -0.84331067618629
  C   -0.81773529900370      1.15689871901362     -0.86774320145088
  N   -1.43714284873951      2.06837527772126     -1.27385299765157
  N   0.40387725713130      1.06472109533024      1.82099528205468
  H   -0.41846236105315      1.60357620388802      2.10488783703821
  H   1.00115558002136      1.65110633008961      1.25208119586425
  H   0.36361605061338     -1.03485593648614      1.43107802968974
