15
Coordinates from ORCA-job run
  C   -0.27685004066356     -0.01908607611870     -0.26161141132752
  C   -0.26031675673481      0.07009148866092      1.13517017323377
  Br  2.01885942072882     -0.14010293528702     -1.02376206688766
  Cl  -3.04658553033416      0.10749309079196      2.04363736568166
  H   -1.62180533684804      0.09598925841514      1.39450983339936
  H   -0.55202556839299      0.86789378876654     -0.81786384955325
  N   -0.80294106524384     -1.20991859833478     -0.93224458344506
  O   -1.26840531351316     -1.02935598918777     -2.06007307641806
  O   -0.77496009854412     -2.30007184030805     -0.35718574841105
  N   0.18106205118097      1.36897794538845      1.54446217146981
  H   1.15904226345672      1.46514336464261      1.27207203990123
  H   0.11890402228665      1.40492230425579      2.55513407300634
  N   0.18056692162214     -1.00768786855157      1.98127928513442
  H   -0.38997728441728     -1.82539887637395      1.80384843591131
  H   1.12458231541666     -1.24300905675957      1.66835735830469
