12
Coordinates from ORCA-job run
  C   -0.26858047677513      0.12383140472751     -0.23626539734416
  C   -0.05011145585485      0.14761981679684      1.24100819641168
  Br  1.25930074444078     -0.47162456620497     -1.29642381726140
  H   -2.60792215396348     -0.13127522491727      1.32608663582850
  H   -1.17540949144135      0.25091743732650      1.57988182402638
  H   -1.11194105904679     -0.54466479195116     -0.43460447091736
  H   0.20594678096844     -0.86956026057295      1.55342345870942
  C   0.92700511794412      1.07619516794916      1.75910478304244
  N   1.71673533527660      1.79171390706685      2.25894578482555
  N   -0.71210563887074      1.45461183800573     -0.79512446656344
  O   -0.60034014143373      2.44701337116668     -0.08459252460195
  O   -1.17730756124387      1.43490190060709     -1.93026000615564
