14
Coordinates from ORCA-job run
  C   -0.14244910794421      0.02235260223354     -0.39761462449043
  C   -0.23641145467669     -0.03135356919998      1.06379922891698
  Cl  1.57525668767706     -0.01399279665268     -1.13952205132359
  H   -2.66197149402404     -0.08710090642769      1.99514465957642
  H   -1.41412068371222     -0.03043763157825      1.38635435050034
  H   -0.58549390242419      0.92171412084890     -0.81689630117244
  H   0.12802865452583      0.92504317049447      1.45452886595441
  C   0.39463235145642     -1.20565110701842      1.78396233138216
  H   1.46983995107356     -1.29931493058383      1.59771369678366
  H   0.22923814319382     -1.07257120344238      2.85709017230472
  H   -0.08603244515549     -2.14257709183184      1.49952717652484
  N   -0.88550313666572     -1.10657891467031     -1.05576380640162
  O   -1.90546467056319     -0.79280105889421     -1.66975824529191
  O   -0.46731889276093     -2.25106068327732     -0.90972545326354
