14
Coordinates from ORCA-job run
  C   -0.31849520989559     -0.11057798404320      0.11845993106804
  C   -0.56246476676656     -0.16706142516872      1.57676707816383
  Cl  0.11178942465089     -0.05635175948848     -3.47890084343712
  F   -2.30275432528257      1.61026855984548      1.49054613680751
  H   -1.63597896458529      0.58846458741474      1.68181517886158
  H   0.12051253420071      0.51033251701823      2.09507988989248
  N   0.16562557758956     -1.13344093702085     -0.56701592465960
  H   0.44011539307384     -1.97161223159062     -0.08475563201226
  H   0.24413127684353     -1.04679123033253     -1.59095219103860
  N   -0.60645062759277      1.02995418053174     -0.48757224434120
  H   -1.27355446586113      1.60974704433291      0.03057712110538
  H   -0.52186519118117      1.05680673903870     -1.50371569089978
  C   -0.52366778324545     -1.48851250028180      2.13255523544337
  N   -0.50876287194799     -2.58134556025565      2.57203195504638
