16
Coordinates from ORCA-job run
  C   -0.04970124790791     -0.12470771798469     -0.38225624403606
  C   -0.36301474438542     -0.00364459208207      1.11639154479764
  Br  1.86713278706493     -0.04610540424685     -0.72205795239631
  H   -2.29609138499482      0.76023511183416      2.69028491624460
  H   -1.46071991146373     -0.16626574677293      1.33128795105918
  C   -0.58150671333146     -1.29159710856711     -1.07387655369063
  N   -1.00735356272435     -2.18481760779828     -1.71001281829468
  N   -0.74614509537329      1.10158732844492     -1.01949804964288
  O   -0.07473250345361      2.03787300275657     -1.40745611830848
  O   -1.96479574254802      0.99693642476233     -1.03968653372666
  N   -0.09240988388109      1.26271853212610      1.62998363722552
  H   0.79551516605588      1.29526723309397      2.11348284246962
  H   -0.91797041432623      1.38897187629463      2.29536048503300
  N   0.33660154215904     -1.15898731803087      1.81389111782070
  O   1.03930005986152     -0.90356377588070      2.78723517458479
  O   0.12799164924854     -2.28687023794921      1.36868660086066
