12
Coordinates from ORCA-job run
  C   -0.16448793206949     -0.08307152774705     -0.23281600433776
  C   -0.22047886899923      0.09611721688693      1.25726130998404
  F   1.17092136758427     -0.30454572328300     -0.68177591216679
  F   -2.80058164520488     -0.15846036894492      0.34403556275792
  H   -1.31246213201548      0.17237791646573      1.39605152089840
  H   -0.79140053829780     -0.91657250980398     -0.53014563401603
  H   -0.52960165834455      0.81130856483898     -0.73814450659464
  H   0.12350981048085     -0.82998271167297      1.73341255692777
  C   0.58959753647220      1.30352981875964      1.75619842501727
  H   -0.04611306811297      2.02425044658294      2.27898628320527
  H   1.39017641257623      1.01435548481436      2.44460715878473
  H   1.07032071593080      1.83118339310336      0.92625923953983
