12
Coordinates from ORCA-job run
  C   -0.33203872107794     -0.11836084600610     -0.06759454797236
  C   -0.10977823766158      0.01849129071705      1.26757500997930
  F   1.10866931204269     -0.49233373499266     -2.60430247098621
  Br  -3.20216602320240      0.49949284376934      2.24843393973359
  H   -1.83497481386414      0.26720763272745      1.60595467885902
  H   -0.31024355252213      0.77484540237523     -0.69111749570444
  H   0.22093754736076      0.96561647607521      1.68468911188138
  C   -0.53322315338887     -1.34885803009105     -0.82073878324486
  H   -0.53616696798293     -2.24630382121737     -0.19471237340431
  H   -1.42765534585498     -1.29656365927274     -1.44973067037045
  H   0.34065420895848     -1.21867204413628     -1.63503374458819
  H   -0.01940425280694     -0.85872150994810      1.90461734581754
