10
Coordinates from ORCA-job run
  C   0.63179638537834     -0.01997769809967     -0.04021650120573
  H   1.63521724713815      1.81606931548545     -0.50376423561442
  Cl  -1.71484091051741     -0.14517691468995      0.00609419494065
  Cl  2.91414375188538     -0.32991048365167      0.42234765896962
  C   0.70022857364300      1.48777941685414     -0.05392375612584
  H   0.52764616760471     -0.59439471199214      0.85691850163539
  H   0.65897923677214      1.85216565480158      0.97201153406991
  H   -0.14100653343613      1.89757993501711     -0.60933668464648
  C   0.71514528653448     -0.71798407918861     -1.29334601242150
  N   0.78948079499734     -1.23618043453623     -2.34749469960161
