14
Coordinates from ORCA-job run
  C   -0.79282987537844      0.13477148028298     -0.55381537668048
  C   -0.18507732398364      0.18551173525690      0.74737037730557
  Br  2.91413101653980     -0.74420771749677      2.07523071718925
  H   -2.22484238418751     -0.87324640469525      1.05949045416316
  H   -1.37828171944449     -0.18615122318097      1.25868878517322
  H   0.35372400233374     -0.71744818773328      1.05286328748752
  N   -1.44028445773295     -0.98441410552218     -0.95640122105595
  H   -2.26931824755827     -1.10063296573892      0.10067997638820
  H   -0.86570944378359     -1.78026712295202     -0.66931130003710
  N   0.35041620506234      1.32148116520142      1.34681956253523
  H   0.29950424777628      2.15993973082860      0.78694621742107
  H   1.28895906945057      1.11187736043635      1.68529367824295
  C   -1.28479828020739      1.37842342091235     -1.08731215031776
  N   -1.62501280888644      2.42500283440078     -1.50846300781487
