16
Coordinates from ORCA-job run
  C   0.45686361519633     -0.03626450123413     -0.07487469370124
  H   1.54421693258911      1.61402971966008     -0.64137174271737
  Cl  -1.76805115585333     -0.33585409908017     -0.50912071193410
  F   2.28656910473994      0.01028680988603      0.59322714153861
  C   0.56801363236280      1.49241222991297     -0.16268404751033
  N   0.89674675396221     -0.78689205691435     -1.20843468730485
  H   0.24741314943584     -1.54027338370670     -1.38364448029219
  H   1.80622545184205     -1.14172126241901     -0.93724973833598
  C   0.21361598092594     -0.69454838759195      1.20230438774877
  N   0.05052220692237     -1.28797168664158      2.20520654221443
  N   0.54580013568803      2.00791232272526      1.20771274354168
  H   0.71980156482528      3.00668673144821      1.16827668487623
  H   1.33858474230405      1.57176327277245      1.67102201164591
  N   -0.38538961030895      2.14203570992586     -1.03225475561349
  H   -0.11626535514262      3.11729275191062     -1.10763269585684
  H   -1.30822714948906      2.08141582934641     -0.62005195829924
