17
Coordinates from ORCA-job run
  C   -0.16242877793252      0.05256409162886     -0.33394888680404
  C   -0.01298015450492     -0.00239070237489      1.09431219493114
  Cl  1.63614293278306     -0.01203347307113     -1.32976991929768
  F   -2.53551605813638     -0.23317466119029      1.40507578463231
  H   -1.37057212019526     -0.08244221843270      1.33213616953540
  H   -0.55833912271139     -0.88684568576378     -0.72133985089747
  C   -0.86240221243752      1.24681330377819     -0.93515655340862
  H   -0.97380378908504      1.13526290611359     -2.01509884336109
  H   -1.84773217217305      1.29613857421038     -0.46356559910518
  H   -0.31328289137554      2.16906002257929     -0.74191108545378
  C   0.59861529428258      1.20263416413321      1.77103853480636
  H   0.09060075653901      2.13226525063567      1.49774597306435
  H   0.51843340515776      1.08041212366413      2.85424150989288
  H   1.66543068191845      1.31231284162678      1.52076723304798
  N   0.56424105266689     -1.24358229589840      1.60967776091080
  H   -0.13286715169627     -1.97606796289927      1.52711997052589
  H   1.35185032690017     -1.50854627873965      1.01927560698073
