13
Coordinates from ORCA-job run
  C   0.09224719268056      0.21930304613718     -0.26357817369482
  C   0.09673022663782      0.03932387781865      1.23087221978725
  Cl  1.10786132127785      1.58894254861055     -0.79837239586766
  H   -1.93224493535717      0.59896606257323      0.55197842110125
  H   -1.14668201504033      0.42656970092935      1.37551400669459
  H   0.44430176969134     -0.66816927084281     -0.78312577134425
  C   -1.40288380793942      0.48124390691690     -0.73363917490358
  N   -1.96612343239465      0.55464165052363     -1.78657781742674
  C   0.97983521457780      0.80061977820958      2.05936667286477
  N   1.65850059438560      1.47366787325677      2.74807821757569
  N   0.02490517309514     -1.35762275192656      1.61181493649320
  O   -0.59749080048905     -2.09510116372049      0.83307421911748
  O   0.48896349887449     -1.72014525848600      2.69963463960281
