16
Coordinates from ORCA-job run
  C   -0.30846373502958     -0.04400595179579     -0.35098410785671
  C   -0.35674846243971     -0.14178373110031      1.17595754982791
  Cl  1.43856756827958      0.40676564436139     -0.81571955693829
  F   -2.51921023995207      1.38590301677634      1.44139375458468
  H   -1.41258089562129     -0.04963906282889      1.48022936838677
  H   0.17491763704397      0.70143638736260      1.60744186009422
  C   -0.58857926009297     -1.34635709620403     -1.08292288374299
  H   0.13345049252979     -2.13382903492405     -0.86325349851836
  H   -1.58723923447164     -1.67973147559326     -0.79437712624023
  H   -0.58849393024128     -1.13136549516807     -2.15236753297043
  N   -1.22269487778182      0.98116204232324     -0.75549720578386
  H   -0.74429376706958      1.73100413276740     -1.23000196353189
  H   -1.77478042565987      1.32211313703425      0.08656707318222
  N   0.26462692736080     -1.37169809609834      1.70771836650512
  O   -0.38386475060895     -2.41969413880123      1.63484334574010
  O   1.39285695375464     -1.29436027811125      2.20239255726174
