15
Coordinates from ORCA-job run
  C   -0.47126248708356     -0.02893030488276     -0.18660865968066
  C   0.03180578205909     -0.00238252501781      1.13796514279413
  F   0.95558066613749      0.21369850567084     -1.70451434061715
  F   -2.66521380853496     -0.14633939817492      2.32750856464294
  H   -1.86044776924626     -0.12243402827164      1.85801838894655
  N   -0.82543708314205     -1.24269464772154     -0.73261270864834
  H   -0.73298511101358     -1.14121386340441     -1.73632102210017
  H   -0.16797547412355     -1.95369775643123     -0.43696015889011
  C   0.36765453393283      1.23862577192498      1.73650436105973
  N   0.60339718752257      2.28638916624229      2.22354361029366
  C   0.54387878718585     -1.18948162633994      1.72160620076621
  N   0.93804487496539     -2.19997228275968      2.18451851035122
  N   -1.10373567492386      1.09085114730690     -0.69820366691391
  H   -0.84826079626667      1.90863955139932     -0.15850289056946
  H   -0.68243362746876      1.18098229045954     -1.62313133143464
