15
Coordinates from ORCA-job run
  C   -0.41617055897752      0.21639878166164     -0.36998687110939
  C   -0.14996585628538      0.01188820394854      1.12888458483580
  Cl  1.12065512603323      0.07925091876696     -1.31642175506717
  H   -1.93718603858907     -2.24658772752965      1.28225941740037
  H   -1.14323116841799      0.06171025952141      1.59330204757534
  H   -1.00144930534234     -0.66424026918239     -0.64489317974354
  N   -1.09608768848127      1.45266656173169     -0.71918373110798
  H   -0.47274117199544      2.05856741924452     -1.23386520504353
  H   -1.34951237619762      1.94035046599564      0.13140176366832
  N   0.61344792195100      1.20918951471016      1.65104172842793
  O   -0.04422696970137      2.22634366768835      1.91056365198043
  O   1.83382045654959      1.13398038703510      1.74509240433387
  N   0.44097557594991     -1.20634542088444      1.51571098934897
  H   -0.39386994960668     -1.85984571872312      1.52004839201775
  H   1.11473200311096     -1.51260704398438      0.82438576248279
