19
Coordinates from ORCA-job run
  C   -0.36148845842805     -0.02887674916567     -0.23766896229770
  C   0.12372073284122     -0.15642498011712      1.03522925265542
  F   1.40305430271151      2.63793266823501     -1.14330536975302
  Cl  -2.84088332571717      0.38248044761803      2.17515379296488
  H   -1.73750330885419      0.11087116913130      1.46829367303454
  N   -0.74447887816334     -1.38421952868303     -0.85167891066187
  O   -1.94641109675625     -1.64316709796457     -0.94343118187190
  O   0.15961583775030     -2.10245555170494     -1.28327268301808
  N   -0.53697018353166      1.00056719894416     -1.07083103639230
  H   0.67266389338275      1.96686423673517     -1.16239305242633
  H   -1.35198034974810      1.55729282286080     -0.83357877934445
  C   0.32533791251173     -1.47462770872848      1.73484649941296
  H   1.36561177436656     -1.81033244517004      1.64312680230962
  H   0.10635307153207     -1.36652786603833      2.80331792567950
  H   -0.31607790722303     -2.26739899512656      1.34613950028565
  C   0.68185842776820      1.05819469849742      1.72431899316017
  H   0.09190107674746      1.33885137315358      2.60634946465444
  H   1.70196250413788      0.85009792698917      2.07045781478784
  H   0.72579397467213      1.90105838053408      1.03698625682062
