14
Coordinates from ORCA-job run
  C   0.73971003151200      0.22836054632724     -0.26928453133817
  C   -0.45302981947019     -0.20192967485087      0.55635535196313
  F   1.76712964486706      0.75816903386341      0.51302268976230
  F   -0.67310419312201      0.44549153748557      3.73049562733515
  H   -1.12126241068919     -0.66867424413417     -0.19741168940254
  H   1.16153346414061     -0.61830779195213     -0.82551972585875
  H   0.44523582124060      1.01412720402449     -0.97650559054535
  N   -1.12955215475148      0.92122678447834      1.19962130908205
  H   -0.60979229525527      1.76802141412375      0.99389368785235
  H   -1.03662661478342      0.79420047616503      2.25328422893127
  C   -0.07118770067392     -1.27802770324194      1.57218211621740
  H   -0.97824256876677     -1.69016499662934      2.01685542424821
  H   0.50388253090804     -2.08348330593093      1.09581402009482
  H   0.45510626484397     -0.81421927972843      2.40461708165815
