15
Coordinates from ORCA-job run
  C   -0.11230126824106     -0.00732816433823     -0.40214731941368
  C   -0.14609457133745      0.11576077482117      1.10048576952765
  F   1.22049613400680     -0.14755404752566     -0.87350842392458
  H   -2.61300883542714     -0.19280064340319      1.20359788011038
  H   -1.45017766499157      0.03125411233815      1.29317360857856
  H   0.25390338907762     -0.78653450503328      1.57521487827803
  N   -0.81510285092655     -1.19477233255310     -0.85006339931314
  H   -1.74840043333999     -1.11406548010650     -0.43177319956151
  H   -0.37915542092557     -1.98454709658354     -0.37978487290800
  C   -0.70457816318958      1.20973483109645     -1.07452227063142
  H   -0.69307137385958      1.05758576804590     -2.15536949168400
  H   -1.73440139650931      1.33661772933930     -0.72827896675094
  H   -0.12665542257786      2.09972734773252     -0.81898150416890
  C   0.43804189018119      1.30230019332994      1.64852317913152
  N   0.84630598806004      2.30877151284006      2.11292413273005
