11
Coordinates from ORCA-job run
  C   -0.33379274694224     -0.00138144579981     -0.30447255338610
  C   -0.09804722939857     -0.09398782076584      1.03257098018033
  Cl  1.68677251684169     -0.10007697401854     -1.77010494712018
  Br  -2.96367800853282      0.34624189785038      2.49855763139903
  H   -1.70417926842836      0.12984700535695      1.65916679989531
  H   -0.54272998240480      0.91586755661702     -0.83035675501343
  H   0.32826867372016      0.76785407841018      1.53304129187366
  H   0.06692131670901     -1.07394355144145      1.46418385448323
  N   -0.96463645379951     -1.14747582679152     -0.96920178340626
  O   -1.71677085476847     -0.88054844149919     -1.90717678027608
  O   -0.75666796299611     -2.27395647791818     -0.52777773862952
