19
Coordinates from ORCA-job run
  C   -0.09633756286140     -0.15564394071379      0.02140745738716
  H   1.61052820722418      0.94543760955125     -0.33238637401992
  Cl  -1.92135238756879      0.03136525077975      0.13658449103554
  F   2.89241541297471      0.56195554322061      1.39516591080930
  C   0.57162169495018      1.22545249799835     -0.10981418570492
  N   0.14760407044222     -0.99949959743778     -1.14002827989183
  H   1.12252045666353     -1.27973218663917     -1.08003147684787
  H   0.04366432933424     -0.44258825636039     -1.98276541648166
  C   0.38256433136497     -0.87014007005690      1.26515398347471
  H   1.47199178173334     -0.72108823264355      1.33852421571813
  H   -0.05533382855658     -0.39475416093307      2.14168961089885
  H   0.08216953533836     -1.92031582972952      1.22057358514307
  N   0.58622722084443      1.90463795872850      1.18629519720656
  H   0.77704593821906      2.88634948395219      1.01051079629288
  H   1.46769774164250      1.51883292947226      1.58764740705995
  C   -0.00858404220879      2.07507518320498     -1.25230109530155
  H   0.68573661758715      2.13539142282918     -2.09561743952401
  H   -0.96353808673740      1.69445790918198     -1.62042954108266
  H   -0.19723143038591      3.09583648559516     -0.90840884617174
