17
Coordinates from ORCA-job run
  C   -0.54710876098522      0.00940474741440     -0.20652222381099
  C   -0.31397334408785      0.09163473744108      1.14490007212054
  Br  2.25483952346067      0.16035130792974     -0.94970451846056
  Br  -3.32240754146168      0.01702176672302      1.98072695922373
  H   -1.67333001747315      0.07491944643673      1.34073710012217
  H   -0.06339355962193     -0.84695809710033      1.64608209276442
  C   -0.91267900864845     -1.30569301543093     -0.80717275953522
  H   -0.57260656707445     -2.14019071684938     -0.19309561721287
  H   -2.00514328608355     -1.35866909491645     -0.90935569995999
  H   -0.45761150393178     -1.39182153715618     -1.79449917915825
  C   -0.89294555878837      1.22625466936012     -0.99642039202168
  H   -0.59196257294678      1.09890227026693     -2.03553937163342
  H   -1.98650055915395      1.34511806112650     -0.95234810376143
  H   -0.42507635525960      2.11728988304408     -0.58875620608486
  N   0.18700580970124      1.31126360009128      1.68513524430840
  H   1.11551732925050      1.43498383824732      1.28045965015269
  H   0.26180597310436      1.24705813337203      2.69095295294731
