13
Coordinates from ORCA-job run
  C   -0.27209726338248      0.19697981823247     -0.28257428852833
  C   0.00870562212068      0.07193158603189      1.21332208626463
  Br  1.55883182958790      0.04014472368327     -1.21284121488203
  H   -3.17458137415509      0.13877962409236      0.06557671076265
  H   -0.97760207791288      0.13826846774800      1.68549217683866
  H   -0.76010238054076     -0.74116192090397     -0.56174690531972
  H   0.51869997769209     -0.85622640862295      1.46203999970925
  N   -1.04982057162658      1.24803322308841     -0.73264530328178
  H   -0.84893235457336      2.09407315144430     -0.21367958411837
  H   -2.06259297191266      0.90289587546529     -0.51394990530181
  N   0.85208901872593      1.16058144148981      1.76552180453657
  O   1.91447941763579      0.84955505944368      2.30492530135320
  O   0.43906312834143      2.31647535880745      1.65670912196709
