16
Coordinates from ORCA-job run
  C   0.57566442285984     -0.07013215078033     -0.02260298283818
  H   1.66105949219853      1.75243176429387     -0.21289206218075
  Cl  -1.75459140218670     -0.05483936744626     -0.50777336409412
  Br  2.89990928982633     -0.38343055479491      0.83613833268104
  C   0.64405143926932      1.44660840146338      0.02093083890121
  H   -0.06985440507562      1.84389332745087     -0.69583316479385
  C   0.90063773618849     -0.71268881900357     -1.34725196134198
  H   0.81225153879852     -1.79157958227836     -1.23341550095653
  H   0.19693653887314     -0.38053212767136     -2.10800248291269
  H   1.91902533214739     -0.47093951715117     -1.64492009671403
  N   0.15876942051460     -0.91122177244169      1.14838437416613
  O   -0.10571453455599     -0.31930745087172      2.18530330530333
  O   0.11972491492813     -2.12008159827359      0.97842940351271
  N   0.31752944869791      2.12401714672548      1.31670881529136
  O   -0.84305139127894      2.48749848462174      1.48247396273081
  O   1.24675215879510      2.33119381615761      2.09164258324553
