16
Coordinates from ORCA-job run
  C   -0.29588008356462      0.02554601619808     -0.29417587025024
  C   -0.23002109686376      0.14340363205592      1.12842728120313
  Br  1.78560396871766     -0.12004131253094     -1.16700310750219
  F   -2.68995206818139     -0.44450475284743      1.37035602894349
  H   -1.56794600273918      0.00893508203380      1.29434518515058
  H   -0.55708010559839      0.96726724563600     -0.77421646209944
  N   0.31621197856469      1.42945699933738      1.53090786244916
  H   1.32803544564157      1.40491440881106      1.39979670454589
  H   0.14037557285944      1.57002238443712      2.51934187807882
  C   0.28951080507590     -1.05812068205846      1.89241214409929
  H   1.36383377455849     -1.20569797690104      1.70808739593088
  H   0.13497967077537     -0.90929738747269      2.96653816483135
  H   -0.24796850917397     -1.96878282769125      1.61865196737329
  N   -0.96776559076911     -1.10645426581385     -0.88434811215096
  H   -1.83214569365738     -1.17130238705271     -0.33960018348353
  H   -0.42441206564535     -1.93879417614095     -0.68775087711952
