15
Coordinates from ORCA-job run
  C   -0.06376304409829      0.06222686042380     -0.26197402929973
  C   -0.76026264850093     -0.34487908424668      1.00558766398669
  Cl  1.64737277369036      0.46222918489709      0.02140651449507
  H   -0.44852793485459      1.34163471324196      3.20056293479435
  H   -1.82308965109004     -0.45143681022603      0.77247864881677
  H   -0.65431303612260      0.47558972445900      1.79522281414471
  N   -0.74214739662903      1.31829905517135     -0.89384982050067
  O   -0.09739761098950      1.93305704900081     -1.73243331776376
  O   -1.89231645396372      1.54948731238424     -0.55092325740543
  C   -0.20210746799326     -1.62292314009766      1.60946433424722
  H   0.85208236908727     -1.50069730368129      1.86384937297103
  H   -0.73125180824216     -1.80061963700343      2.54846651953608
  H   -0.31687718392691     -2.49983444030898      0.96252732233744
  C   -0.12530108526551     -0.94722975889221     -1.32296229329633
  N   -0.22047982110105     -1.79655372512195     -2.13185340706341
