11
Coordinates from ORCA-job run
  C   -0.19930373047201     -0.00853718213161     -0.41194631865796
  C   -0.29587943626557     -0.00966087837226      1.02086766109451
  Cl  1.66262284667857      0.00682294272210     -1.15609298549620
  F   -2.54545262882174     -0.18467082253610      2.11723632689015
  H   -1.59649419165441      0.00851830593134      1.43868249559714
  H   -0.58434548528099      0.88781827322473     -0.89523295718000
  H   0.13785425793480      0.89590630064794      1.47196545269940
  N   0.12607442394192     -1.26727434883731      1.63332050978925
  H   -0.47694937387283     -1.41836970090342      2.43281507086554
  H   1.08633748038352     -1.21649813953064      1.95441090683644
  H   -0.56076416257125     -0.92867475021476     -0.86385616243826
