12
Coordinates from ORCA-job run
  C   0.56051501983278     -0.05897292337726     -0.04474584834623
  H   1.61127752605408      1.81644369537260     -0.23840829449907
  Cl  -1.75336718301223     -0.10246391071395     -0.20663623136696
  Cl  2.81338676489786     -0.32391448753372      0.47125306040080
  C   0.60428053014745      1.44512849256703     -0.05770093136952
  H   0.40708396717051     -0.61316782019265      0.86014913107124
  H   -0.09005797882766      1.86274052161919     -0.78066693597307
  C   0.71440789204130     -0.71934660191388     -1.30753507792138
  N   0.84952648774384     -1.22238069081307     -2.36292985330300
  N   0.20606027908419      2.02576278751919      1.25962081189093
  O   -0.04001134165241      3.23057460753882      1.24534950932805
  O   0.19793803652030      1.31206632992768      2.25392066008817
