16
Coordinates from ORCA-job run
  C   -0.11309338039206      0.06198852998126     -0.34124245027068
  C   0.07731802587907     -0.01127734367938      1.12852464800859
  Br  1.76504239803299      0.15859639341058     -1.28451647100592
  F   -2.65071557452070     -0.37656295804850      1.34285310186089
  H   -1.70893468200518     -0.20134705943155      1.42742761066075
  N   -0.69452585290377     -1.12570811334192     -0.94052512972721
  H   -1.62099683659848     -1.21909284570357     -0.52929877870419
  H   -0.15242859094247     -1.93491929581825     -0.65263758602079
  C   -0.89560936135462      1.30879669546760     -0.77237030942048
  H   -1.77245036400430      0.98560753984571     -1.33750544270334
  H   -1.22844533348311      1.87578337075780      0.09773749005494
  H   -0.30313667313280      1.96465326844238     -1.40714383140936
  C   0.57204052071146     -1.24130701561019      1.64250222977640
  N   0.92418246472168     -2.29556565810023      2.04200732390852
  C   0.48478906301433      1.16703165863535      1.81210271509662
  N   0.76750417697794      2.16784283319292      2.37155487989527
