17
Coordinates from ORCA-job run
  C   -0.21009907636592     -0.07396768628451     -0.33598885564459
  C   -0.19420131868390     -0.21060346414238      1.18321901162709
  F   1.12993808960807      0.02380626933670     -0.81282242278368
  F   -2.49417124523341      1.54833075619627      1.57712550837832
  H   -1.23673332027256     -0.41024055586725      1.44747237929130
  H   -0.59427737642725     -1.00662810953507     -0.77286677865762
  C   -0.98606137633460      1.12531752739469     -0.82580891060548
  H   -1.26619261605642      1.01103416293262     -1.87792623679726
  H   -1.84604455365295      1.29695934305004     -0.15621763555784
  H   -0.34757111311444      2.00807501903234     -0.73708510940547
  N   0.10551723102257      1.03028695005121      1.89417143814318
  H   -0.81384761241817      1.51870470174948      1.88616742055399
  H   0.78461790712271      1.56394642151875      1.36033656838314
  C   0.72260137086195     -1.37495114258169      1.61215616996408
  H   1.45304076988358     -0.99746544780478      2.32947346880486
  H   0.15332753315427     -2.17043084910012      2.10344559610929
  H   1.26589670690650     -1.81380389594632      0.77087838819672
