13
Coordinates from ORCA-job run
  C   -0.22553293163438      0.03291936996865     -0.28306971577491
  C   -0.11158569838463     -0.08794493639858      1.21784835982337
  Br  1.52693871762480     -0.05542323899171     -1.18381970281868
  H   -2.52175879169378      0.15503821868970      0.82390061959778
  H   -1.31271301627923     -0.10608051488703      1.37733108907699
  H   0.23901071822460      0.86585669008065      1.62087652060019
  N   -1.02757927241950     -1.13114579425523     -0.88290067496562
  O   -1.53847069965419     -0.93541634014634     -1.97778311327713
  O   -0.96700927374546     -2.19381176705455     -0.28218036560741
  C   0.67477822451283     -1.17754982781358      1.72874728556295
  N   1.29801420055102     -2.03503048267484      2.24363307885164
  C   -0.86139068300182      1.28791903345359     -0.67730807793939
  N   -1.11488149410027      2.36593959002925     -1.08042530312980
