15
Coordinates from ORCA-job run
  C   0.46866008088462     -0.01858112949291      0.00524932343194
  H   1.62784268411026      1.81479775894678     -0.01264425809608
  Br  -2.36618829028669     -0.19178251419459      0.11048733504131
  H   3.98404091875931     -1.08929143540649      0.09727471712445
  C   0.57308544712836      1.50036749799036     -0.02454227119945
  C   0.61157056870370     -0.71117983955283     -1.21564722728716
  N   0.73470964306849     -1.24455209936944     -2.27224831023414
  C   0.64641679829396     -0.70593112601134      1.22934931781001
  N   0.79902259119865     -1.25398561976045      2.27278537576842
  C   -0.00274818312451      2.10986613926204      1.18283993669986
  N   -0.37005554140091      2.69548374457759      2.13490404839130
  C   -0.06563501844861      2.11308443825046     -1.27631812045777
  H   0.42214972832852      1.71759287589529     -2.17037852559260
  H   -1.12262609652087      1.85044806914943     -1.30818144375591
  H   0.04832466930570      3.20120323971613     -1.26614989764417
