13
Coordinates from ORCA-job run
  C   0.56911204207893     -0.05802038844773     -0.02105487545181
  H   1.62859743717765      1.80094601143871     -0.26290157979155
  F   -1.07475132745351     -0.19879641574329     -0.38275140007412
  H   2.34416662376365     -0.01034893602690      0.55468499575875
  C   0.60867505215002      1.46525057192658     -0.08789103036140
  H   0.96233990173142     -0.62971928405865     -0.84511978573652
  H   0.47703061749760     -0.54395934862598      0.93093233954844
  C   0.11734491509651      2.04032381965088      1.23816801357174
  H   -0.88221621165122      1.65341207931370      1.44056018974541
  H   0.80808765363222      1.70584171418259      2.01663498196705
  H   0.08726197544652      3.13350417293846      1.22554434523865
  C   -0.20343351357743      1.99080376978221     -1.19840214768283
  N   -0.74757516589237      2.52280223366942     -2.09391404673181
