16
Coordinates from ORCA-job run
  C   -0.20253453772851     -0.00916294340775     -0.36916486871158
  C   -0.22990920176710      0.09115459444639      1.12771614136671
  F   1.14762628608208     -0.36817773812697     -0.78696791006656
  F   -2.63374295042038     -0.37038217734004      2.06301112511134
  H   -1.79127967399650     -0.02051683769662      1.64060196038280
  N   -1.09713228644009     -1.02010824885831     -0.82492587822017
  H   -1.03163379514875     -1.78477096470280     -0.16293126991627
  H   -0.78230453404487     -1.32903749521520     -1.73704353314668
  N   -0.46108609712567      1.20381430076455     -1.11080848409304
  H   0.15835892700334      1.92283622253997     -0.75073738474270
  H   -1.40967651168655      1.47436821170516     -0.87913308536754
  C   0.43486851330417      1.27408639918725      1.59208922340624
  N   0.92738277021757      2.28090026575681      1.97293898196340
  N   0.17048845472409     -1.11383658553930      1.78829701783360
  H   1.06580948245794     -1.53626362759524      1.61753916936689
  H   -0.49541484543075     -1.61115337591793      2.34597879483361
