17
Coordinates from ORCA-job run
  C   -0.11106834477072     -0.13470300825960     -0.53447890210309
  C   -0.39403367810608     -0.17967459737613      1.02764501377755
  Br  1.45851195664889     -1.29468915836428     -1.10385421894846
  Br  -2.59075606284678     -0.04662817735531      3.92068410289900
  H   -1.34425186301138     -0.70625236185385      1.15740916371443
  C   -1.22222148778858     -0.75821480304047     -1.26650318853731
  N   -2.13452952531072     -1.18935268073742     -1.87176587966559
  N   0.15778733893723      1.19136907879537     -0.95258196105991
  H   -0.34242668085484      1.80398964123094     -0.30505125862346
  H   -0.07008348853883      1.34905112981753     -1.92393662648718
  N   -0.62219417737470      1.18364458174233      1.49830592255218
  H   0.21833060983616      1.51948074214663      1.95783853089559
  H   -1.34260711180075      1.11258672491559      2.22442407048047
  C   0.64536820756740     -0.90930094584500      1.86559130902072
  H   1.62150942783122     -0.42040315987097      1.78786787252558
  H   0.28859950585866     -0.86596357799364      2.89660499224938
  H   0.75838537372390     -1.95466942795172      1.57664105731008
