16
Coordinates from ORCA-job run
  C   -0.23176616415379     -0.01385691262478     -0.28487229305441
  C   -0.19395072568128      0.02749751089612      1.16944608023716
  Cl  1.56226232685786     -0.05019449751226     -1.13340267951207
  F   -2.67427598346622     -0.43357611265214      1.53664404728665
  H   -1.51181606410850     -0.13076499428603      1.42829195982354
  H   0.23881481606751     -0.90717142045552      1.54530992399667
  C   -0.92721234223577     -1.24387667732930     -0.84426922645052
  H   -0.37831350060878     -2.13242530288586     -0.52564370569150
  H   -1.92369594985467     -1.25897319054043     -0.39754346172045
  H   -0.97227190465943     -1.22281715115752     -1.93407705102232
  C   0.43135202347995      1.25558102073906      1.79712384789067
  H   -0.09724535828913      2.16474619413015      1.49356933548205
  H   0.36672202016696      1.19637318236251      2.88815318334088
  H   1.48926828979767      1.38113696076364      1.52637697374567
  C   -0.78340647893700      1.21248690580691     -0.86263021948282
  N   -1.24887500437540      2.18929448474544     -1.32278671486919
