16
Coordinates from ORCA-job run
  C   0.46478664812199     -0.07663329551322      0.03647148982270
  H   1.04015792468296      1.87843681946436      0.69864119643838
  F   -1.01366960906193     -0.49492722916522      0.68851388165486
  H   2.26708352998552      0.27593492750717     -0.44469934683864
  C   0.29244611003387      1.44388725533597      0.03423901387228
  H   -0.69997006851868      1.63680935977831      0.45523751585609
  C   0.25643215381489     -0.88071314115576     -1.24072765947399
  H   -0.75598923038210     -0.68077699408982     -1.60029769495557
  H   0.98683293074464     -0.64783719944148     -2.00902747876491
  H   0.31511490606988     -1.94277605423279     -0.99209048450102
  C   1.30562911089323     -0.63608444330122      1.06467626206729
  N   1.78090463840850     -1.16667069821576      2.00959349688742
  C   0.39835896924377      2.10121418589268     -1.33568945067260
  H   1.39027020848802      1.90642440796514     -1.74862077197351
  H   -0.35731152004211      1.71619454227940     -2.02660094347309
  H   0.24769329751752      3.18377755689221     -1.25078902594571
