10
Coordinates from ORCA-job run
  C   0.61986015068172     -0.01866629924272     -0.04021945687237
  H   1.60958448468137      1.80365385285073     -0.56849955711528
  Cl  -1.72511566862161     -0.15024351283339     -0.01978754445199
  Cl  2.90241278478815     -0.33739184310466      0.42463483934656
  C   0.70792605879342      1.48800028306079     -0.04684594483559
  H   0.51142279042618     -0.59562924277640      0.85495730742120
  H   0.76173155233256      1.84404594019039      0.98133878880896
  H   -0.16698715042172      1.91742081130039     -0.53076343430954
  C   0.70795319172594     -0.71343456040053     -1.29495722445581
  N   0.78800180561401     -1.22778542904461     -2.35056777353612
