17
Coordinates from ORCA-job run
  C   0.50490885806390     -0.04390379148270     -0.04056871521903
  H   1.53221518839381      1.74439517049983      0.21092985098612
  Br  -1.75326583087363     -0.41403536805852      0.31378168822031
  F   2.57598959216151      0.01654105862289     -0.06150964491328
  C   0.50077314004329      1.46814663256759      0.00500083355247
  H   -0.12240927427482      1.79863752221784      0.83497732046262
  C   0.62889479870377     -0.83051864651154     -1.31734123562776
  H   -0.20565354346849     -0.61795656597732     -1.98479323545942
  H   1.58276431773780     -0.57418221809184     -1.76851093807621
  H   0.62269976382519     -1.89064790131085     -1.07155878301865
  N   0.90259538993544     -0.71786193713329      1.23819684416973
  O   0.98096454930838     -0.00635059086952      2.23331616728785
  O   1.06335922416478     -1.93100521484192      1.22774092644556
  C   0.02683710381747      2.08861669733138     -1.30199016815776
  H   0.68681459223596      1.81041165890449     -2.12672230740323
  H   -0.99154962225045      1.77722836694442     -1.54418381473383
  H   0.03871175247611      3.17992512718908     -1.21891478851554
