17
Coordinates from ORCA-job run
  C   -0.19798583293077      0.01512003637543     -0.44103038410155
  C   -0.25824993521761     -0.12082697644143      1.00495356917729
  Br  1.86385587035881      0.19391353831973     -1.13486478624261
  F   -2.36025742715702     -0.19770806381517      2.30947366102032
  H   -1.45941405502393     -0.13586968830172      1.37452473089264
  C   -0.74393478594203      1.28249584001950     -0.90868242741526
  N   -1.21956461891536      2.29027550127594     -1.28731126471427
  N   0.31635451024591      0.98948139521944      1.75827076891906
  H   -0.41282568944770      1.31537360610894      2.38439304244058
  H   0.59117543558558      1.75311946651804      1.15129641146374
  N   0.20456990878885     -1.41727587526541      1.46510788389286
  H   -0.39711929718556     -1.64457399124913      2.25081826659042
  H   1.14489609198171     -1.28219102198080      1.82682851223486
  C   -0.72518361326548     -1.16728058747751     -1.22782476476865
  H   -1.78880838324583     -1.28267415991951     -0.99520431190153
  H   -0.59495388944807     -1.01858195919926     -2.30061586418898
  H   -0.19677428918150     -2.05708706018708     -0.89227304329892
