17
Coordinates from ORCA-job run
  C   -0.00047869464926     -0.01455566128456     -0.46057988125915
  C   -0.04543753384514      0.07281506359944      1.05508246085182
  Cl  1.65742981513711     -0.31437181331119     -1.16166786625460
  F   -2.50050985588670     -0.94578081953924      1.39660301340119
  H   -1.13120899496448      0.07229637792927      1.31791913742695
  H   -0.28388252895244      0.95955120691567     -0.86812579900076
  C   -0.94564109166521     -1.09602787405848     -0.95468476881408
  H   -0.48853525358519     -2.07784558740051     -0.80991896006643
  H   -1.85180861731138     -1.05694519199681     -0.32591352195092
  H   -1.14225204893280     -0.96588750876118     -2.02221488387674
  C   0.52833092305632     -1.11620417028804      1.80178655055062
  H   1.51913403623664     -1.40824442798793      1.44701426178535
  H   0.57456063068597     -0.88108386513368      2.86850282356071
  H   -0.20598856782069     -1.91294728273566      1.68508934316107
  N   0.57708142499691      1.33290418096336      1.56010446015119
  O   1.70594293101354      1.64561359482890      1.17390228486461
  O   -0.06930657351320      1.98727377826066      2.38223134546917
