16
Coordinates from ORCA-job run
  C   -0.09393359862426     -0.02614900156946     -0.36600440433900
  C   -0.11059315024871     -0.03458631350426      1.10282734846822
  F   1.24456332621525     -0.01205716618228     -0.97720276119224
  H   -2.44965875646891      0.52277521518518      1.68878175505555
  H   -1.43510064672520      0.12183813703910      1.43018864360376
  C   -0.68518738736582     -1.27703092311562     -0.88004717315280
  N   -1.15783897620835     -2.26584037063561     -1.30480543431596
  C   -0.80957984732157      1.17599267675841     -0.95342750825153
  H   -0.88110920406326      1.09613292456904     -2.04066506505937
  H   -1.80473183641301      1.24837053852490     -0.50025793838317
  H   -0.24541970558491      2.07628249194021     -0.70375992336300
  C   0.46552013110220      1.20528004464727      1.75822244710513
  H   -0.30302525090755      1.99202740852371      1.81148706852437
  H   0.74801182410977      0.98073538528846      2.79198158495663
  H   1.35151916187879      1.61365988141711      1.25545141818864
  H   0.27717391662551     -0.97397092888619      1.50744994215475
