11
Coordinates from ORCA-job run
  C   -0.47071558674451     -0.00910904791983     -0.29080262775354
  C   0.00962856919213      0.02193374767612      1.15816698782691
  Cl  0.94600293369195      0.18222622785654     -1.43078790930176
  H   -2.70809065430640      0.12814849924437      0.89325094387897
  H   -0.95499034849225      0.01452218583414      1.70169412577439
  H   0.60128477945132     -0.86747585549080      1.38847315706281
  C   -1.13204434360443     -1.27950084864889     -0.58556631620492
  N   -1.42586092510595     -2.36280309971128     -0.94132024151770
  C   0.77174259114823      1.21931163723855      1.48161366766592
  N   1.37258343969321      2.18278941319411      1.78227904304269
  H   -1.17550045492330      0.80267714072697     -0.46092083047374
