15
Coordinates from ORCA-job run
  C   0.80998066578081      0.06733425897419     -0.18210722674425
  H   1.73759626258427      2.02115319564370     -0.48491583378971
  F   -1.63413918402214     -0.37391437661208      0.67038453983721
  Br  2.24163047262132     -0.57959449749526      1.03188988242029
  C   0.76715406614911      1.59761085819339     -0.17774192444867
  H   -0.66718142641180     -0.33069921276572      0.37006447967544
  C   1.09927650974322     -0.45716641990778     -1.48100604583561
  N   1.25021937177823     -0.91377473145023     -2.56185772234086
  C   0.41275997778052      2.13898059508726      1.20407914648461
  H   -0.50585320442989      1.65615493027948      1.54350614668041
  H   1.20520217066576      1.94599735895254      1.92921250125513
  H   0.25919365859240      3.22384281710182      1.15078553045292
  N   -0.24921272610633      2.01156951712297     -1.17420253254402
  H   -0.91660000693871      2.62033436122132     -0.71316695371348
  H   -0.77834660778677      1.18805134565440     -1.44257398738939
