19
Coordinates from ORCA-job run
  C   -0.13126671064197     -0.09413860750468     -0.30701717019038
  C   -0.04040328760687     -0.07479140781880      1.16153221438517
  F   1.16109251717528     -0.05741478963467     -0.98492799290526
  H   -2.55790995831881      0.12383601720889      1.49355453739094
  H   -1.62994749247032     -0.01771884521611      1.44638305549120
  N   -0.75054319713533     -1.31291094901668     -0.77606613403420
  H   -1.01994203702207     -1.14441982881527     -1.74033173003965
  H   -1.60071686579725     -1.42881117148749     -0.23183156078174
  C   0.43568828565793      1.23818135962297      1.73373881052960
  H   -0.30147844606281      2.04382038728498      1.59612252453809
  H   0.57610175971188      1.13797382963126      2.81801766646014
  H   1.39989653954976      1.59716565688072      1.32272150149455
  C   0.69365372004016     -1.25683248551340      1.75258033923045
  H   1.79184877901321     -1.20844557315855      1.61065888676986
  H   0.51691043998363     -1.32158795047233      2.83683271694052
  H   0.36023176791638     -2.19651539588917      1.30435330621675
  N   -0.80805585454095      1.06634166374656     -0.89471633414790
  H   -0.23112792834692      1.87947259707539     -0.70650071827500
  H   -1.66259203110491      1.18473549307638     -0.35122391907316
