10
Coordinates from ORCA-job run
  C   0.67700347449042     -0.02041069348942     -0.02820465305179
  H   1.33251475238567      1.98034008182682     -0.49921361278625
  F   -1.23945592002208     -0.13878257431252     -0.73588814009776
  Br  2.80976754426737     -0.23963689504786      0.69095167611233
  C   0.50602422359752      1.47930925822849      0.00915284547367
  H   0.84009838065773     -0.47326907761554     -0.98614188724286
  H   0.23089941843603     -0.61502692954999      0.74450215709370
  H   -0.43443094092682      1.64587761930291     -0.51906198433082
  C   0.40805182290505      2.02901276473769      1.35815668351423
  N   0.30299724420912      2.49606644591940      2.42997691531555
