15
Coordinates from ORCA-job run
  C   -0.01384676640866      0.02829718055887     -0.44610258828606
  C   -0.11815729921973      0.01220179147015      1.01929937252808
  F   1.28693457187864     -0.08999483790200     -0.96095103723380
  H   -2.45998827070067     -0.04035539852953      2.11265024029194
  H   -1.27293761149349     -0.06030263081442      1.39259381754944
  H   0.35675901835786     -0.90986148229760      1.37063680720081
  N   -0.74662538803847     -1.20420132009508     -0.98418254876042
  O   -1.88244564560767     -1.04337344697815     -1.41844207293407
  O   -0.15190090225667     -2.27026419616302     -0.87289635408454
  C   -0.59825710409557      1.21824289233286     -1.08075561742583
  N   -0.98557424042137      2.20923317581921     -1.57857547802261
  C   0.42181480238690      1.24777321378285      1.71288303626716
  H   -0.02185194048612      2.15609908483492      1.29485234572724
  H   0.10246541217615      1.20288539039251      2.75964440368700
  H   1.51201136392887      1.34021058358846      1.67007567349567
