12
Coordinates from ORCA-job run
  C   0.12225431017298     -0.19232463907772     -0.85682593123802
  C   0.21998282637762     -0.34275594759169      0.47583268137210
  Br  2.81309231457484      0.35864826649323     -2.20209956946589
  F   -2.03350002776987      2.33179543724435      4.55191360156609
  H   -1.66653340878021      1.91492981304894      3.80665883684294
  H   0.59362140604096     -0.83686682053317     -1.58008509810183
  H   0.87781891521687     -1.12524192610254      0.83879620726905
  C   -0.40604213369456      0.46776558856192      1.46206930785655
  N   -0.89675200567165      1.04154105032733      2.36186641367638
  N   -0.75732893090323      0.80410575860432     -1.44928050306436
  O   -0.97253027397439      1.84632264153910     -0.83278547468972
  O   -1.25247299158937      0.49447077748590     -2.53309047202323
