16
Coordinates from ORCA-job run
  C   -0.08376215345458      0.01490816474538     -0.37184943864172
  C   -0.41674508694940     -0.10402135085507      1.12392767751335
  F   1.24850592857569      0.28083550644982     -0.58065159961582
  H   -2.09393065848953      1.06206400764220      3.19817107208686
  H   -1.51996119969726     -0.16805961342919      1.22332487996957
  C   -0.41940038160197     -1.22994658551875     -1.08627610801634
  N   -0.69190823364677     -2.25226866120659     -1.59648774472938
  N   0.11866715756101      0.98583128602035      1.89289105589597
  H   -0.65361838780222      1.08657536944860      2.63685082390307
  H   0.00746968496598      1.84187924602080      1.35872218885431
  N   0.14935934292295     -1.33066566083276      1.65558927834180
  H   1.15865777236214     -1.27421200528162      1.61712983390953
  H   -0.19544550007247     -2.16665589604553      1.20136903323053
  N   -0.80488989940460      1.13900282221968     -1.13742186168077
  O   -0.87025570614704      0.99412571327102     -2.35765886909914
  O   -1.20162267912190      2.11152765735162     -0.50876022192179
