13
Coordinates from ORCA-job run
  C   -0.32114651492640      0.01529078167884     -0.29665843052657
  C   -0.15183944804579     -0.07581086537388      1.20993172297243
  Cl  1.44042236012179      0.04841089523967     -1.01123964307391
  H   -3.19580916036481      0.87024254561155      0.90778963873713
  H   -1.17459309103760     -0.02944642103461      1.61079809482887
  H   0.40025928784906      0.78716854316964      1.58828551078372
  H   0.36569528811646     -0.99178922111033      1.50983047798143
  N   -0.98918166108489      1.18509656304907     -0.74127417892312
  H   -0.58590081409466      1.98463706222395     -0.25882195445402
  H   -1.95576833942433      1.08340652852625     -0.33087180182812
  N   -0.98852328841044     -1.14991338521405     -0.83560066577335
  H   -1.35055110706993     -1.71652654675844     -0.08100375535041
  H   -0.37036351162846     -1.69387648000767     -1.41569501537410
