13
Coordinates from ORCA-job run
  C   0.52270388230821     -0.12576452411973     -0.05312643303639
  H   1.35872703829577      1.77882903267337     -0.50556485872526
  Cl  -2.13372752882014     -0.28891307908222      0.07422901682983
  Cl  3.09429152871584      0.05185452455041      0.68583765653980
  C   0.44123793732790      1.35902064199060     -0.09857864191093
  H   0.43597575381803     -0.65470185361093      0.87817272351710
  H   -0.43816997273944      1.67173078464791     -0.65862803879043
  N   0.71578587600867     -0.77774202921167     -1.16106986980369
  H   0.85267818547989     -0.30420938514114     -2.03685313123578
  H   0.81296783194560     -1.77711191940613     -1.14360932404859
  N   0.29012462867216      1.97672005083894      1.25118532181607
  O   0.28090723928403      3.20634330523945      1.24283237517704
  O   0.17681759970346      1.26749445063117      2.23821320367125
