14
Coordinates from ORCA-job run
  C   -0.26163148203414      0.11881167229134     -0.35150004182740
  C   -0.05476302888070     -0.06505265849370      1.01195538821510
  Br  1.90590731330061     -0.26983688391256     -1.46903646026259
  Br  -2.89010570178272     -0.25229672302473      2.41208445821300
  H   -1.59827302268490     -0.06437898288468      1.57775780789190
  H   -0.66311096471284     -0.76075539190455     -0.84396294229289
  C   -0.63978746941135      1.35917460948066     -0.95890090293386
  N   -1.02509446930912      2.30603034926855     -1.54345064270644
  N   0.37057399586637     -1.34490420801383      1.39626855226780
  H   0.48508337549415     -1.39348981935646      2.39930662635723
  H   1.26086085564276     -1.53564762274930      0.93566145949615
  N   0.45328632292593      1.06738721841820      1.80333948076042
  O   1.11267679094431      0.79140333973192      2.81268987564220
  O   0.13163748464161      2.20745510114914      1.47088734117938
