12
Coordinates from ORCA-job run
  C   -0.10042801196674     -0.01008512307727     -0.42770734114153
  C   -0.22622793741270      0.20157897281247      1.11068671075594
  Cl  1.34305512233105     -1.03277256599369     -0.80122908440342
  Br  -2.22961297188663     -2.03075025919007      2.54644480856083
  H   -1.15684795188300     -0.27126535430202      1.48938549940775
  H   0.56063314322641     -0.36787265161209      1.60721551582679
  C   -1.27430902358284     -0.68926552085240     -0.98819539588068
  N   -2.19679430169503     -1.17967701503929     -1.52604207760962
  C   0.07414337767018      1.24527173716909     -1.16786302026608
  N   0.21570613001151      2.24224913751511     -1.77416166799258
  C   -0.13400475151425      1.59812072934273      1.50379871052047
  N   -0.05748282329802      2.72195791322741      1.83741734222215
