14
Coordinates from ORCA-job run
  C   -0.31012282776856     -0.09442222991626     -0.11770466661713
  C   -0.30214158758296     -0.39576366655278      1.38295060678416
  Br  1.51035291899136      0.47493357395388     -0.69480207871869
  F   -1.76540351267679      2.11262640560757     -0.04394136937552
  H   -1.32903527893652     -0.73965148500890      1.57697621064175
  H   -1.26873720091748      1.26225425710175     -0.19508758997944
  C   -0.67268015535401     -1.23649653832565     -0.88676418881811
  N   -1.05338022869161     -2.17217334100637     -1.50475578877874
  N   0.59127333526343     -1.45448815603459      1.87287812773968
  H   1.51894621648884     -1.04679361352174      1.91099555136845
  H   0.61524633613184     -2.19620279486480      1.17833650018279
  N   -0.02764911677440      0.80801657502456      2.17713836971169
  H   -0.89249227270542      1.11281672240384      2.60382901077550
  H   0.22987337453233      1.54887429113949      1.53595130508360
