18
Coordinates from ORCA-job run
  C   0.57497241468757     -0.06161371252226      0.01032909597439
  H   1.34935051666616      1.80838976999663     -0.53543004742111
  Cl  -2.03356710521671     -0.23970719678805     -0.02976371876996
  Cl  3.17685192278429      0.18767683678968      0.19923806581270
  C   0.44681828576002      1.43818025629802     -0.05003473636927
  H   -0.39309331687870      1.65509078038062     -0.71204471055317
  C   0.78230210355965     -0.79356428844556     -1.28051522830209
  H   -0.18666751264056     -1.15066091996596     -1.63043394496796
  H   1.22697850079801     -0.13499488776012     -2.02517918938935
  H   1.44968995650773     -1.63933474722417     -1.12316377128358
  C   0.49999057772068     -0.86817346061954      1.27586685848508
  H   1.51007207366332     -1.05182460817001      1.63759592084625
  H   -0.07761540091417     -0.35240599393705      2.03750867364722
  H   0.00883268711457     -1.81658292880877      1.06373646549829
  C   0.25491536889933      2.12636789316353      1.28870567160179
  H   -0.68660452314482      1.82066842358391      1.74785320544158
  H   1.08710310573054      1.89662847648132      1.95714948688469
  H   0.22670034490309      3.21065030754778      1.14599190286452
