15
Coordinates from ORCA-job run
  C   -0.17502842317087      0.03126778137287     -0.30487767882384
  C   -0.11029741019584      0.00248916654976      1.23144482095750
  F   1.15856427012657     -0.00673157037562     -0.77515954023067
  F   -2.80778529154963     -0.21561048315268      0.72536761309129
  H   -1.18965912540391     -0.03645072918762      1.49580549231629
  H   0.37088164600703      0.90473145785111      1.62244745757053
  N   -0.88467594437087     -1.08054353998818     -0.85757707125545
  H   -1.81856545483916     -0.96438371054982     -0.39717005783214
  H   -0.46682708537318     -1.93473605154952     -0.49711660966929
  C   0.60011658156876     -1.16647134820822      1.73025069712267
  N   1.16158720969660     -2.11878956833223      2.12831447694962
  C   -0.82129269142501      1.33815648726587     -0.76419711537574
  H   -1.71600738700240      1.11416800530176     -1.33886871700284
  H   -1.12394798097302      1.95712238105092      0.07994336351289
  H   -0.10239291309508      1.88035172195161     -1.38341713133082
