14
Coordinates from ORCA-job run
  C   0.55211702015589      0.01045979798471     -0.03616311470883
  H   1.69405846092455      1.81338787153448     -0.15466294752538
  F   -1.14084902019559     -0.09889132265622     -0.24379295878124
  H   2.46666656950459     -0.19326592443636      0.34949794171631
  C   0.65094446086684      1.52999989128349     -0.05568469974449
  H   0.83752118321308     -0.53317598100064     -0.92012569696370
  H   0.55325069540831     -0.51849524064238      0.89648582804658
  C   0.10533069573329      2.07851688252013      1.26253456952727
  H   -0.91921675603347      1.72487634426759      1.39444885915819
  H   0.71860140892266      1.73079580127964      2.10008034619561
  H   0.11108320906713      3.17563467687325      1.26438755247461
  N   -0.06634528507012      2.03159271322771     -1.24181407686571
  H   -0.20613968260193      3.03114243206231     -1.13283596417586
  H   -0.97263295989523      1.57553205770229     -1.20999563835337
