14
Coordinates from ORCA-job run
  C   -0.40852083127349      0.06711243391042     -0.28322705089125
  C   -0.04918845286591      0.17081718906214      1.03734734075795
  F   1.74727014374574     -0.97184763075425     -0.74090693011046
  Br  -2.90351548141847     -0.24537445043184      2.23301305752128
  H   -1.38404939559394      0.05872692419984      1.34943448456750
  H   -0.62518486896512      0.99705237945517     -0.81495764220359
  H   0.15711372708934      1.17477779201029      1.41420803062727
  C   -0.81500240021676     -1.18192487229135     -0.96579478312218
  H   -0.74703438019218     -2.03150357870500     -0.28986817250292
  H   -1.83873583369680     -1.08334292911026     -1.34769509873407
  H   -0.09786720007507     -1.34443777918195     -1.76905265577400
  N   0.65012721284005     -0.89940836950205      1.67084085455815
  H   1.21251177985490     -1.26586257119397      0.87398860586380
  H   0.01708598076776     -1.59020453746721      2.05504995944251
