15
Coordinates from ORCA-job run
  C   0.47829440535975     -0.04157031883390     -0.00449417439374
  H   1.58645940910673      1.59084618904790     -0.72421673730832
  F   -1.30623008385669     -0.03280520584321     -0.59672163746439
  F   2.02881079697916     -0.13999366626578      0.77265875713275
  C   0.65259557220471      1.45876424094016     -0.16920183436100
  H   0.00691800327846     -0.38331890082291      0.90219528667409
  N   0.84923041356025     -0.88566078277141     -1.09529510737456
  H   -0.02417187144415     -1.26735471050853     -1.43024633174806
  H   1.44841087933646     -1.60636525687074     -0.71841023148618
  N   0.61252596343802      2.08566468053286      1.12959493744717
  H   0.85866922972191      3.06463579098410      1.04612639602966
  H   1.34217414878149      1.60360301183665      1.64268160384493
  N   -0.36355567483806      2.11007275544666     -1.07652178953170
  O   -1.21266400640336      2.85175333147851     -0.59489715102879
  O   -0.19914718522467      1.92019884164963     -2.27730198643183
