10
Coordinates from ORCA-job run
  C   -0.14913578547914     -0.19140152133970     -0.29534722311214
  C   -0.24603831988384      0.09438722483801      1.20880740932404
  Cl  1.04186260760553      0.79702417583316     -1.20560822415066
  H   -2.87996898929160      0.46083282316163      0.62449550771255
  H   -1.33871908400563      0.40117803558492      1.32249437355359
  H   -1.14763465433843      0.02585936701504     -0.69682612898305
  H   -0.11133314691320     -0.82737462959509      1.78248935567388
  C   0.66226320243127      1.08946716892926      1.74047704659875
  N   1.38865357158148      1.88019895170037      2.21966210129446
  H   0.11901059829357     -1.22912159612758     -0.48723421791142
