16
Coordinates from ORCA-job run
  C   -0.59944183348092     -0.12587235834972     -0.12378764113316
  C   -0.18902559717468     -0.10496092906320      1.27492365773319
  Br  2.05114147259931      0.73337273557002     -1.18873732301976
  H   -2.42356126265150      0.77168694720185      1.51032789974308
  H   -1.36036239043173      0.06802657577938      1.67112224604375
  N   -0.85850694915595     -1.30446783696125     -0.72204130492583
  H   -1.11438777463570     -1.20830085615556     -1.69202786467087
  H   -0.23712697506205     -2.06880973251468     -0.50434088705621
  N   -1.31934421606857      0.94360836557101     -0.55678845451300
  H   -0.76371972355698      1.77590194384439     -0.37819647950432
  H   -2.08799520943688      0.98404363687547      0.32565898684182
  N   0.48553031142629      1.05777198075821      1.79237855006339
  H   -0.19309711850395      1.80012515883246      1.92062012306049
  H   1.19103805098940      1.33522408891471      1.10908010594966
  C   0.35430757772594     -1.35635253769607      1.77362831410469
  N   0.73375163741797     -2.40353718260703      2.15170007128308
