12
Coordinates from ORCA-job run
  C   -0.08199660834194      0.01954445141275      0.10859879606704
  C   -0.40286027201882     -0.15438945027103      1.48057092179765
  Br  0.83048599776344      0.84875666791420     -3.49613931312985
  Cl  -3.32695278589356      0.09596468734254      1.60366527984026
  H   -1.79281079358940     -0.17789421667661      1.48012147177291
  H   -0.33548297948657      0.73823499101150      2.10200714565190
  N   -0.22376274278057      1.12758810435421     -0.55733660300732
  H   0.03106012057785      1.14616867335467     -1.57865653119836
  H   -0.54279836130326      1.96869255952378     -0.09702577542355
  C   0.08696481507145     -1.34163265773274      2.11893913727142
  N   0.45664085386415     -2.31885566931146      2.65885050107668
  H   0.23881275613722     -0.82689814092180     -0.49650503071878
