16
Coordinates from ORCA-job run
  C   1.12164873897490     -0.06597298497769     -0.14495615837582
  H   1.27026551471315      1.90341572680568      0.66315041585753
  Cl  -2.85274965127909      0.03775786214738     -0.55244571736864
  H   2.13799581012930     -0.06500910751315     -0.55260286054641
  C   0.57716835695211      1.33976936182993      0.02717953110668
  H   -0.38299290008783      1.26575856462788      0.54233899414809
  N   0.26233712851320     -0.86573764183749     -0.92730175150094
  H   -0.73149026569640     -0.72910709501896     -0.71514247947491
  H   0.51876752231159     -1.84247873342589     -0.93770258974855
  N   1.37713535283288     -0.65178168966355      1.26408733748780
  O   0.49186636158190     -0.56821947651295      2.10979088327775
  O   2.45954404291577     -1.22564362601888      1.43510452183293
  C   0.38227527350536      2.02750195799982     -1.31941102546430
  H   1.29658668962399      1.99757689752685     -1.92176848213671
  H   -0.42125082215747      1.53634371687224     -1.86596160278969
  H   0.10265284716666      3.07434626715874     -1.17211901630481
