13
Coordinates from ORCA-job run
  C   -0.37326321787372      0.03740954944508     -0.15342202703173
  C   -0.15712719092276      0.03562671099087      1.26216081602446
  Br  1.62607189485212     -0.34408300758999     -1.25529690303500
  F   -2.70214612123110      0.29313444211648      1.35521427388611
  H   -1.51149654163263      0.16301266617014      1.45753199920485
  H   -0.84222839058075     -0.87089724845854     -0.52787624669121
  H   0.31287915642553      0.95685403098019      1.62463413117221
  N   0.40256266998805     -1.15201575080019      1.87894532233100
  H   1.21194597166638     -1.43869855970689      1.32971179049363
  H   -0.27737887757676     -1.90095916091425      1.81320151691175
  N   -0.92760809242213      1.19214085492392     -0.76569309051404
  H   -1.90425503636540      1.16871203761247     -0.47208876516595
  H   -0.50850622432683      2.00713343523070     -0.32944281758607
