12
Coordinates from ORCA-job run
  C   0.07850020274381      0.18953520032764     -0.39441177709567
  C   -0.11870544366872     -0.04444637513352      1.08414553874874
  F   1.21425311279437      1.02559415715957     -0.65738484557696
  F   -2.56697781728201      0.87217961643330      1.58742734644893
  H   -1.65836624242965      0.45334016830816      1.46690215724908
  H   -0.01893218104827     -1.10012745632723      1.34613515562713
  N   -1.07648894309465      0.76925996455159     -1.01466247299082
  H   -0.81735905151529      1.24227306892000     -1.87179696786135
  H   -1.52980359622859      1.40696103163254     -0.37430783205768
  C   0.69177287698787      0.75879111789317      1.93344345898912
  N   1.30691942208940      1.43201245293167      2.68632691452517
  H   0.32784766065171     -0.73752294669689     -0.92567667600568
