16
Coordinates from ORCA-job run
  C   -0.14067332628856     -0.00891090592145     -0.40866872860341
  C   0.14315023782874      0.10011859103849      0.89819479381795
  Cl  1.95354727590518     -0.16889590972456     -2.15703582498311
  F   -2.51381282440401      0.03483210652163      2.86847429531429
  H   -1.89577023208902     -0.58959269601540      2.56074023151087
  H   -0.28919605987777     -0.94993694725393     -0.91090055554423
  N   -0.64705175734039      1.11880397007407     -1.17121876886439
  O   -0.26327715837378      2.25524782712177     -0.90593399073816
  O   -1.49367183744602      0.83562946193532     -2.01811439559035
  C   0.40295370262581      1.26469730191518      1.78938042682292
  H   0.02686813687454      2.17613991790917      1.33467020388930
  H   -0.08318811205964      1.11260790477879      2.75515660471905
  H   1.48262117386259      1.37280143754552      1.93777924213250
  N   0.41443910233823     -1.18579954185700      1.55892501121048
  O   -0.50765382849232     -1.67036124701013      2.23432182998670
  O   1.52568550693646     -1.68743127105749      1.45565962491961
