16
Coordinates from ORCA-job run
  C   0.32897058370867     -0.05199498678753      0.01828411789040
  H   1.22141984178054      1.80119476808932      0.59045761869156
  F   -1.18428867165161     -0.30955066174865      0.51285032086034
  H   2.13584336312462      0.07321494084817     -0.36357956036380
  C   0.34003192616890      1.46770707020821      0.05033915440953
  H   -0.54542873662778      1.78975343836619      0.60910836431283
  N   0.19376029893609     -0.80913039282380     -1.18644843694057
  H   -0.44501445455651     -1.56680267746329     -0.97753592761036
  H   1.10098837030434     -1.17264042864115     -1.42840092667829
  N   0.95429847940773     -0.72286906368545      1.19354030932930
  O   1.15640133872925     -0.04956189233713      2.20870828627948
  O   1.06810207535891     -1.95260212305749      1.14843544552551
  C   0.32058645937379      2.05981732049815     -1.34907944850816
  H   1.20093337288531      1.71900800849942     -1.89737572347611
  H   -0.56656219960682      1.73816379483790     -1.89702557727315
  H   0.32971795266456      3.15481288519714     -1.30003801644849
