18
Coordinates from ORCA-job run
  C   0.66525615798867     -0.18542935947765      0.20739298472339
  H   1.80902440775781      1.55396090507759      0.52979353847338
  Br  -2.78344744108377      0.11988466543748     -2.24656529265653
  H   2.88479801924685      0.07399523127292     -0.69065950172635
  C   0.79486611691093      1.31486191708744      0.22000754561398
  N   -0.29966545459565     -0.73502396656307     -0.46941859376754
  H   -1.02288250048055     -0.24482165732176     -1.04382533265098
  H   -0.41130681108264     -1.73846005243292     -0.45790198622741
  N   1.37134209885861     -0.87262970273091      1.15080662573358
  H   2.34841392305181     -0.61199329199414      0.98428192502857
  H   1.25677143119191     -1.87630996648385      1.09417610742287
  N   -0.11041304812371      1.85866028728769      1.31004081045405
  O   -0.99617159065276      1.14593220488515      1.77587378192962
  O   0.12984124981118      3.01196203236730      1.66290518485727
  C   0.46519851661149      1.99921117462872     -1.09065699211615
  H   1.17029249321555      1.61699985131120     -1.82906481038196
  H   -0.55783064073775      1.80159538338611     -1.41668243200873
  H   0.60544307211205      3.07463434426270     -0.97313356270104
