19
Coordinates from ORCA-job run
  C   1.00304662860290      0.00917017249766     -0.09629022404992
  H   1.72382212672439      1.93674418431493      0.39688298555702
  F   -1.78601982088361     -0.81644012720942      0.57700707525982
  Br  3.02862822354466     -0.17198466362575     -0.93320156589059
  C   0.79173465478397      1.52083672734335      0.00368651786386
  N   0.11862895519117     -0.61827605294344     -0.93369525185279
  H   -0.92802202197715     -0.63580062641846     -0.26880172844375
  H   0.35273256985255     -1.61043050930534     -0.93475162075709
  N   1.23374207633244     -0.55929083772936      1.24001830129372
  H   1.76083833170301     -1.41864886461531      1.12625732387354
  H   0.28754974611434     -0.83122462319260      1.51887903355293
  C   -0.32680821542704      1.84159744813058      1.00450582807237
  H   -1.23368829404951      1.28208565027166      0.77635967562660
  H   -0.01590340988316      1.57268358561026      2.01612881438567
  H   -0.53913253831776      2.91638710972841      0.98223842922228
  C   0.49330368862013      2.13088894288843     -1.35983584794889
  H   1.25821779220950      1.84639048679151     -2.08461900113511
  H   -0.46846405397315      1.77334549035869     -1.73052773509011
  H   0.46354356083230      3.22456650710420     -1.28613100953955
