11
Coordinates from ORCA-job run
  C   0.89602188159414      0.01488119049989     -0.21048065979367
  H   1.93020070105647      1.81442617745399      0.42516005545240
  F   -0.79240580523077     -1.08900387041541      1.58692360008865
  Cl  2.46295729538428     -0.74847591388192      0.30218249061638
  C   0.98524220753983      1.53862876630248     -0.05288585012783
  H   -0.22062885156869     -0.69756815263561      0.90408410342385
  H   0.96329286179253      2.05951504088593     -1.01965738301162
  C   0.61289287366641     -0.35827211485284     -1.55280369150819
  N   0.29393930636856     -0.65790179251252     -2.65212283007945
  C   -0.09653587400973      2.10616029001010      0.76370662722381
  N   -0.95421659659306      2.61886037914595      1.38011353771570
