18
Coordinates from ORCA-job run
  C   0.88556625333408      0.28899815686790     -0.18069090681634
  H   1.17584100412609      2.31238593378635     -0.51885797547780
  F   -1.56037858339355      0.06122364820197      0.65419521078217
  Br  3.19229548701429     -2.81117029259054      0.83562018869106
  C   0.32153062610810      1.69925171171201     -0.18187938533591
  C   1.21564399774333     -0.36254130183477     -1.47266262206312
  H   0.27148588310607     -0.77325742531607     -1.84032053644608
  H   1.54915990004789      0.37370778223008     -2.20371257722724
  H   1.93852346205299     -1.16821834373964     -1.33793927616452
  N   1.19050828916542     -0.30399876756265      0.91425954421237
  H   1.71453504846955     -1.20766621233513      0.94228625340399
  H   0.78062076832864      0.06232308911309      1.76275471402420
  N   -0.13934760393125      2.20061444066456      1.09781593327140
  H   0.60924201546372      2.24870248275360      1.78120298435560
  H   -0.85814893275555      1.50214042148575      1.35335804016132
  N   -0.71666389713693      1.73282757388106     -1.19255432508108
  H   -1.08540223036370      2.67767181670226     -1.19370715284390
  H   -1.42228148737918      1.11342528598019     -0.76135811144612
