16
Coordinates from ORCA-job run
  C   0.32667182831580     -0.05577673900924     -0.08106288697381
  H   1.56012079648693      1.58408241632456     -0.55889510601807
  Br  -1.84979012528646     -0.32558063590624     -0.35078276269510
  H   2.20241296630049     -0.08068751279128      0.66995876084215
  C   0.55311473292959      1.47474629329798     -0.14875962413168
  N   0.80605341170619     -0.75342611825337     -1.26145846033640
  H   0.24726985828030     -1.59135748314423     -1.37633347674069
  H   1.76293745824746     -1.01477617342621     -1.05124781299163
  C   0.50011598105217     -0.70156629493772      1.21180232317823
  N   0.28148254234968     -1.31801257044455      2.20175039288199
  N   0.42034302234272      2.02768590932855      1.19932468132331
  H   0.71466904933252      2.99867088236230      1.15878771376229
  H   1.08520893895592      1.53843206025548      1.79472074923552
  N   -0.31876503275186      2.14175562079144     -1.09797027743178
  H   0.04759346110025      3.07565112453110     -1.24938738702427
  H   -1.24299888936170      2.22046922102140     -0.69001682688003
