14
Coordinates from ORCA-job run
  C   -0.45835236023712     -0.00488272949911     -0.22189870279238
  C   -0.14992210075625     -0.08839739009065      1.11064375617764
  Cl  1.87591502200435      0.21672199860338     -1.33476565169459
  Cl  -2.82754802781378     -0.46855554913468      2.31672104944056
  H   -1.50563318684991     -0.26708832465486      1.51232634385266
  H   -0.63754799876457     -0.94453331012875     -0.73631570586406
  H   0.24292060393742     -1.04903903038611      1.45349647141461
  N   0.27849209390965      1.10614676572174      1.77615156983782
  H   0.35208263486132      0.94833444294268      2.77185124835648
  H   1.19575852448049      1.34009509134218      1.40401746078933
  C   -0.99930985696975      1.23233691194099     -0.85405681897034
  H   -2.06823013211455      1.30299973335925     -0.60630700147230
  H   -0.49878012867634      2.11796081713724     -0.47252692143603
  H   -0.88186508701095      1.19046057284669     -1.93492709763939
