14
Coordinates from ORCA-job run
  C   -0.25184588666621      0.01954923879752     -0.29451389726711
  C   -0.16783076824604      0.03485216435238      1.13942872901354
  Cl  1.67426515295223     -0.04502654468897     -1.19890020159145
  H   -2.62729643579565     -0.27251281734189      1.32645437103544
  H   -1.47645723600503     -0.05246844281705      1.36024918598591
  H   0.25596582140955      0.93537655801807      1.58823484933924
  H   0.22745294029019     -0.87995905988550      1.58678922661914
  N   -0.90206253176446     -1.13232513719200     -0.84658858589457
  H   -1.84599374973341     -1.08384526322456     -0.42391546347186
  H   -0.46456816005568     -1.95479008074392     -0.44128426183842
  C   -0.83924545845343      1.27083933108047     -0.88264186916323
  H   -0.84151249987725      1.21678827089300     -1.97071427999285
  H   -1.87517979129550      1.33060306737934     -0.51225176578185
  H   -0.29113139675929      2.15587871537310     -0.55696603699193
