16
Coordinates from ORCA-job run
  C   -0.42721834173196     -0.34549083239108     -0.46532303911182
  C   0.07878863688160     -0.26658606977622      0.85018881576248
  Br  1.67279742028155      2.80452665509848      0.08358786363485
  H   -1.74987721629734      1.12462282039925      0.86424879140174
  H   -1.03250488437955      0.40522793969019      1.22959693078398
  H   0.73023104070083      0.60828602673419      0.96463331782346
  N   -1.17056966360917     -1.59116245691047     -0.76383306375583
  O   -2.39833482138889     -1.52599514989630     -0.82511121247835
  O   -0.50578710766628     -2.61993543924641     -0.90343581849491
  N   -0.87882636874692      0.74321098459918     -1.08888015155780
  H   -0.16640913222637      1.48030971576003     -0.93201782337155
  H   -1.66689918397402      1.13368189199446     -0.20540177360837
  C   0.41154733033267     -1.46551822031373      1.70361525137468
  H   -0.36979849227390     -2.22766602598703      1.67898521267689
  H   1.34006663036229     -1.92921062805012      1.36325194254769
  H   0.55223415373544     -1.14722121170443      2.73901475637286
