17
Coordinates from ORCA-job run
  C   -0.29639304105431      0.02079157585463     -0.22866445260990
  C   -0.12399752043773      0.13427617871854      1.19269556157017
  Br  1.67456387372599     -0.16485293778956     -1.29644286541482
  F   -2.52067744531021     -0.37132373615540      1.84397456226538
  H   -1.40106437004764      0.07940518297624      1.50855367278844
  H   -0.59565945235519      0.95834240445102     -0.69958245286652
  C   0.56942317521126      1.38587280388504      1.67675080733875
  H   0.16800623714805      2.28213625811488      1.19036325342904
  H   0.43652530234757      1.48585905825735      2.75716890443511
  H   1.64705426497397      1.34001406632285      1.46684098954915
  N   0.35996279812529     -1.05455739427365      1.88812341156285
  H   1.04318198979201     -1.53633928368920      1.30797952170186
  H   -0.43475911867357     -1.66530348889000      2.03866272330664
  C   -1.06256682485221     -1.17274416497892     -0.74116376270447
  H   -0.53908583404099     -2.10070776201545     -0.50784352458245
  H   -2.01852801120527     -1.16807268649686     -0.20830516941692
  H   -1.21117602334703     -1.12133607429151     -1.82068118035236
