13
Coordinates from ORCA-job run
  C   0.76898236250121      0.04978696526701      0.07117624000504
  H   0.92741967056872      1.95527580062730     -0.87374851493188
  F   -0.77800274786766     -0.57434262580325     -0.74789358466368
  F   2.43795923462069      0.43890005037275      0.66021978734579
  C   0.36564470671042      1.51097710728441     -0.04659645370849
  H   1.25774213597747     -0.46227475684055     -0.73984501392366
  H   -0.69495717125399      1.53833074939747     -0.28748456232116
  N   0.41709983478499     -0.62115755172536      1.29640157965345
  H   1.27852441751022     -0.99659092274869      1.66662987106770
  H   -0.21285899531513     -1.35720872486922      1.00987598242831
  N   0.61678509828458      2.30003543368484      1.16140466513402
  H   1.58712914601466      2.08367954167931      1.37266048170214
  H   0.09738230746381      1.82539893367397      1.89409952221242
