11
Coordinates from ORCA-job run
  C   -0.33682878554982      0.12590283109016     -0.17271180973918
  C   0.08536816617855      0.21538171588459      1.13386083491263
  F   1.47382104334593     -0.84627895150705     -0.97082111625597
  Br  -3.03034305240353     -0.38744066497162      1.98454224251002
  H   -1.22541456356726      0.03125835824101      0.99397617686103
  H   -0.67621338380095      1.00936434393066     -0.70412028211096
  H   0.08667409139103      1.17094517151245      1.65547002619074
  N   0.80700896911515     -0.84759049993853      1.65444108555570
  H   1.15246473623755     -1.36882734374441      0.84185442919279
  H   0.34909846829412     -1.36900675375398      2.38717991073632
  H   -0.47291568924079     -0.83875820674326     -0.62439149785310
