19
Coordinates from ORCA-job run
  C   -0.09861194899977     -0.08867555252671     -0.33719516312400
  C   -0.14771707405152     -0.10562562378203      1.20000813656469
  Cl  1.65439579531149     -0.01388662466178     -0.88437228604195
  H   -2.81073578012738      0.48405469962022      1.00185280551170
  H   -1.26571617871931     -0.19394289211932      1.38602486737450
  C   -0.77092867547787     -1.26926673814431     -1.01323626357633
  H   -0.25311956134259     -2.20497883196444     -0.83383234138552
  H   -1.79042525066728     -1.31883319463018     -0.61539698075487
  H   -0.81839374843395     -1.05051513662805     -2.08083775578972
  N   -0.76744993230196      1.09590816844514     -0.82778457475275
  H   -0.28608620501062      1.91737640639814     -0.47800226440365
  H   -1.69393032097004      1.06811170528075     -0.35171456270209
  C   0.27970340353840      1.19458414830469      1.85243727828791
  H   -0.50932780806402      1.92965526864668      1.68969159627360
  H   0.37925067141014      1.04930865034059      2.92547263441515
  H   1.23045507215622      1.55980442888831      1.45416622259613
  N   0.52497286553915     -1.26571190962008      1.85014180942031
  O   0.86350869757981     -1.15640027638703      3.03400258404539
  O   0.65801597863107     -2.31598669546061      1.21746425804150
