16
Coordinates from ORCA-job run
  C   -0.28518408894002      0.02156861406240     -0.31088934992399
  C   -0.14043773153392      0.07132003824283      1.12326588878729
  Cl  1.61867278285293     -0.17861688020078     -1.21943066720342
  H   -2.50654689638733     -0.45189741126135      1.48674711208393
  H   -1.41613654859681     -0.01354527466798      1.38989783185451
  H   0.27856345862048      1.00633914881005      1.50404716040256
  C   -0.82599551728658      1.28743524693132     -0.91212163001299
  H   -0.82492589584312      1.21843478024934     -1.99944227569035
  H   -1.86170804728210      1.39829403924258     -0.55832912151986
  H   -0.24524985844314      2.15527371360514     -0.59545101680053
  N   0.36629925489094     -1.09274820562668      1.81848561974151
  H   1.11025246534301     -1.52029457537100      1.27533148410509
  H   -0.39275848499363     -1.76263067861931      1.92217552691442
  N   -0.98728842986266     -1.11809004001019     -0.81953119038004
  H   -1.88071292123052     -1.08906958767831     -0.29265362247022
  H   -0.51029354130754     -1.94763292770806     -0.48093174988794
