17
Coordinates from ORCA-job run
  C   -0.24803256153506     -0.02395962535048     -0.25337361667892
  C   -0.28959867077949     -0.16050557171184      1.18389564496852
  Cl  1.65867368864689      0.14428384402751     -0.93340336229156
  F   -2.68898519273074      0.61407916881799      1.39589825673974
  H   -1.65973028577685      0.07687435214009      1.34242713157132
  C   -0.67347516555618     -1.24111949159904     -0.95256385985937
  N   -1.06497058511510     -2.17718673586912     -1.54568544324701
  N   -0.89047103446475      1.13887255655142     -0.83656951885013
  H   -0.28502698363394      1.93671406913819     -0.68900697866678
  H   -1.73460070948476      1.26744876316383     -0.27449847498453
  N   0.20899103933201     -1.45340331681135      1.61047762253880
  H   -0.15308276872482     -1.67402401340945      2.52989315537642
  H   1.22624915153691     -1.42690802918835      1.67244773353995
  C   0.25185425609158      1.03056284319388      1.95459853381699
  H   0.04902140512770      0.88941890366285      3.02110519591213
  H   1.33859764746429      1.13664322488938      1.81657143387622
  H   -0.23677323039768      1.96172905835449      1.66055654623819
