18
Coordinates from ORCA-job run
  C   -0.33645543940154     -0.00165295083824     -0.27379716414419
  C   -0.02637304577928      0.01330915825516      1.06359121207426
  Cl  1.89044447985347      0.17722693784536     -1.57175313228582
  Cl  -2.75842395208464     -0.01667985428262      2.20860332996309
  H   -1.43037248723739      0.03458888377867      1.44475677888615
  H   -0.56912105458520      0.95492570748962     -0.73285697956926
  C   -0.79713998097391     -1.22246301210101     -1.00266156762189
  H   -0.09996377886462     -2.04807669913112     -0.86489287588579
  H   -1.78575770340232     -1.52277240411745     -0.62712535100285
  H   -0.86432252421761     -1.02015028880568     -2.07002767440166
  C   0.50441735375828      1.29136364228945      1.65938628578162
  H   0.08154775485229      2.16607364262973      1.15975768591596
  H   0.27198684133293      1.35581558980686      2.72716988948206
  H   1.59089451428922      1.32184619505025      1.52321758828781
  C   0.42990076325870     -1.25378049876127      1.74379304531260
  H   1.46499254785444     -1.46475366183201      1.45094784637963
  H   0.38337871822172     -1.14225669673123      2.83057021655656
  H   -0.18954300687451     -2.11098369054447      1.47427086627174
