12
Coordinates from ORCA-job run
  C   -0.47572270859072     -0.17828196843469     -0.27074052693669
  C   0.21691411558666     -0.03897534394383      1.06606267527458
  Br  -0.00468931967201      1.40751555631893     -1.32151814300826
  H   -2.25875621018572      0.86598411054971      1.25187417898766
  H   -0.51272196904100      0.63671691001009      1.60525748915519
  H   -1.56691804663717     -0.00644881180148      0.01624952410527
  H   1.23961366657531      0.32787796541915      1.04047840779331
  C   -0.16864733106764     -1.35734579813332     -1.04913473614034
  N   0.04396427452153     -2.30527738961080     -1.71439581588687
  N   0.21232745751435     -1.30410197193125      1.82059511086067
  O   1.08128200456053     -1.45005480298434      2.68519979148855
  O   -0.70466593356412     -2.09704845545817      1.60221204430693
