18
Coordinates from ORCA-job run
  C   -0.15328505535685      0.02408406799658     -0.32723699656806
  C   -0.15431823507077      0.10428462031678      1.13915418495951
  F   1.19876665522515     -0.11739057384735     -0.92694779963671
  H   -2.40236872854928     -0.48146608758240      1.83660897783376
  H   -1.49098013274769     -0.02299932022601      1.48827837706532
  C   -0.93663232287666     -1.16010676455126     -0.86216314114205
  H   -0.42123246797912     -2.08028514108937     -0.58645911878532
  H   -1.92889363070030     -1.16791557325965     -0.39721617467115
  H   -1.01754608140627     -1.11375042497857     -1.95043772527300
  C   0.47712025284944      1.33618904274845      1.74653742536751
  H   0.10804272433181      2.25997400153607      1.28726937259952
  H   0.22169131152296      1.36497050265985      2.81142307344392
  H   1.57533838274332      1.33402393560120      1.67338707090656
  N   0.28383861243416     -1.11020591486791      1.80459631387563
  H   0.91939295567689     -1.65324400271327      1.23127140145584
  H   -0.54775041254320     -1.67369274959763      2.00655766632493
  C   -0.66089999457767      1.27052495325086     -0.92722324897603
  N   -1.08740383297590      2.24584542860363     -1.42666965878018
