17
Coordinates from ORCA-job run
  C   -0.22019814913070     -0.01260921942302     -0.28883803951769
  C   -0.14431975516672     -0.04416469115035      1.24367180927117
  Br  1.55655241536150      0.31358206997033     -1.16471161231431
  F   -2.73671634462623     -0.14959318404227      0.93351630245446
  H   -1.24469888099547     -0.12689212819912      1.48365354117022
  C   -0.86087066497854     -1.26681436601261     -0.85638225417490
  H   -0.23227336007864     -2.13452787365885     -0.64957731928176
  H   -1.82706567740266     -1.30862177833418     -0.33399665447487
  H   -0.99877284282649     -1.17280937461209     -1.93498500641333
  C   -0.99037472786604      1.18375220706632     -0.64360648737863
  N   -1.48539756550878      2.18880043971392     -0.99953959564752
  N   0.49499278412720      1.06068813433173      1.88927103331173
  H   -0.19282264897199      1.77811828179990      2.07035648749681
  H   1.24567297871130      1.43910925916520      1.32340058516976
  N   0.51309851584859     -1.30526187486770      1.73785087505483
  O   -0.03496824216292     -1.87368762720042      2.67991429350539
  O   1.57287216566658     -1.67198827454677      1.22584204176865
