18
Coordinates from ORCA-job run
  C   -0.21559819999033     -0.01390308403187     -0.28019612724636
  C   -0.14049091948056      0.00922589386564      1.17576752602253
  Br  1.70827511953934     -0.14166251041838     -1.24666674394018
  H   -2.62122849686302      0.34350973005592      1.83678706264068
  H   -1.32906497661938      0.09099676605844      1.47265001377100
  H   -0.62148568952925     -0.96430840513281     -0.63519545048288
  C   -0.92846630467737      1.15287249714774     -0.90892194176121
  H   -1.09587612169553      0.99634728321019     -1.97671640763100
  H   -1.89235945177247      1.23528993415573     -0.38101802542271
  H   -0.37697744528125      2.08504446795648     -0.78016534280639
  C   0.46751072267548      1.25525478680355      1.78673197939681
  H   -0.07130411876446      2.15524343587189      1.47853021955350
  H   0.38613046492069      1.20068678804556      2.87764745046778
  H   1.52621988025010      1.36591238893234      1.51848302852980
  C   0.40114086342070     -1.26215201341037      1.79399149545158
  H   -0.06670947127988     -2.14566475576652      1.34571718168971
  H   1.48738487489469     -1.35056665453780      1.66144079482185
  H   0.17762927025250     -1.28075654880573      2.86684328694547
