11
Coordinates from ORCA-job run
  C   0.69063550932832     -0.01661953717820      0.01439323029024
  H   1.69195267625700      1.81550543371980     -0.48294818117481
  F   -1.27275352746818      0.08750083695558     -0.32792452924858
  Cl  2.66414872023683     -0.49219779425059      0.52135605159550
  C   0.76400467804568      1.47959857931574     -0.02355840579518
  H   0.25699468812468     -0.58247052078950      0.81178886968924
  H   0.72577284460678      1.84411821061329      1.00474301526411
  H   -0.09924877631833      1.83856131050986     -0.57235270348680
  N   0.64613260502737     -0.72574787377038     -1.27986382897127
  O   0.86586264836805     -0.06473442063841     -2.29187387239330
  O   0.43859793379181     -1.93212422448718     -1.25381964576914
