14
Coordinates from ORCA-job run
  C   0.11280249338995     -0.22430226400118     -0.41429991087788
  C   -0.26180135874057     -0.04269430921224      1.05872729636838
  Br  1.99301050234078     -0.57116257751281     -0.70325956960720
  H   -2.01877184444280      1.79964271954462      2.07719264335692
  H   -1.38451553168224     -0.03144212557072      1.07978868121929
  H   -0.13154590610187      0.69736229646869     -0.93390333542784
  N   -0.67846188034615     -1.31276151672142     -1.08360830487335
  O   -0.58102910430010     -2.45256082597298     -0.63981565890677
  O   -1.41776928632734     -0.96345923699967     -2.00543683353310
  N   0.16886988083381      1.25084704643984      1.49142002238392
  H   0.81712866044399      1.15787698521701      2.26729984621876
  H   -0.90972505116476      1.68446150582974      1.88236675280207
  C   0.18212031629809     -1.16666295054086      1.89133985320417
  N   0.55801810979919     -2.00232474696803      2.62841851767263
