15
Coordinates from ORCA-job run
  C   -0.49908192356160      0.00200640468117     -0.27524477239315
  C   -0.17429255604020     -0.01892215907267      1.05716814930035
  F   1.44869259094437     -0.85308664229060     -0.83518252423185
  Br  -2.84775120232023      0.64103858210575      2.57394646932313
  H   -1.64952572690131      0.26810260192662      1.58569699675149
  H   -0.52327318604064      0.94654871115622     -0.80996382379757
  C   -1.05448413127047     -1.12878392293453     -0.94439555127151
  N   -1.61762685158755     -2.00795160981668     -1.49024929715149
  C   0.50331501695728      1.18738074872074      1.64889937033107
  H   0.06972737558765      2.12003450201114      1.27878429399392
  H   0.41820408493812      1.18790132657188      2.73977768941280
  H   1.55840916466313      1.13478970993568      1.36133472699881
  N   0.17899594237754     -1.29893714207161      1.53361688252277
  H   0.57041104744492     -1.25940799544034      2.46415089577372
  H   0.87050035480899     -1.60203311548275      0.83226049443757
