16
Coordinates from ORCA-job run
  C   -0.03372149296791      0.03605663406022     -0.35980825613832
  C   -0.04207920478558     -0.08141328900411      1.09399726210219
  F   1.33816897365972      0.24321033029482     -0.95039974239628
  H   -2.39389362268772      0.24034415757563      1.80459490730451
  H   -1.52178326105524     -0.03963695500021      1.48239139858030
  H   -0.32629923921719     -0.91544702556930     -0.82248566495374
  C   -0.85570415750656      1.17943420836322     -0.90861465429659
  H   -0.88775583106057      1.15626944279310     -2.00200659651116
  H   -1.87144346967546      1.12509926186248     -0.50209358980454
  H   -0.41971760902392      2.13111898611989     -0.59908445965751
  N   0.33870930252203      1.11600172673452      1.81069348569359
  H   -0.50735795539174      1.62091906574048      2.08615157481954
  H   0.91089260414973      1.73631362062835      1.24763708810862
  N   0.61667179425118     -1.27690950057339      1.62021840481204
  H   0.01033477210229     -2.07635026725736      1.46464400267319
  H   1.48149839668693     -1.45631039676835      1.11021483966417
