12
Coordinates from ORCA-job run
  C   0.28323316811237     -0.15341477719904     -0.00014867150981
  H   -0.01528000958241      1.80899717713679      0.79213019716992
  Br  -2.26708934751858     -0.11248195063523      1.12677021002244
  H   3.23872268237941      0.38506879915340     -1.23051354565418
  C   0.15288870531991      1.34926525049321     -0.18556166111492
  H   -0.74734244238451      1.55310738793632     -0.77166089747790
  C   0.06462237115854     -0.99516452147457     -1.11221898974478
  N   -0.12798003140507     -1.67808209489796     -2.06336062821222
  C   1.01330339743555     -0.64209742271771      1.10676849184876
  N   1.63181172295723     -1.02397012410931      2.04406085724238
  C   1.29326739321431      2.01362448668257     -0.82857152037477
  N   2.20731239031325      2.55412778963152     -1.34268384219493
