15
Coordinates from ORCA-job run
  C   -0.28278565867308     -0.02518502230528     -0.17984953215754
  C   -0.11668746887681      0.12654330807634      1.24854338438484
  Br  1.49140345036064     -0.35531251720869     -1.31314971334723
  F   -2.49951291430702     -0.53838990550441      1.67226328844330
  H   -1.39343877617302      0.07343689542907      1.50415146766563
  H   -0.87748020893996     -0.89753545016907     -0.42637354558310
  N   -0.91855237765146      1.12166410772375     -0.89872990127927
  O   -0.65323372372018      2.26932842108136     -0.54095889758324
  O   -1.68345026659455      0.83820912582034     -1.81905588782372
  N   0.27104421131859     -1.10498279315735      1.90674282608005
  H   1.00833265973653     -1.57268993783272      1.38540246194011
  H   -0.56035460656408     -1.68315762067826      1.94740196623495
  N   0.74991184460753      1.19821806573140      1.70085846860849
  H   0.69513949442533      1.18538519377851      2.71231949600376
  H   0.39438434105156      2.08397812921502      1.36513411841298
