16
Coordinates from ORCA-job run
  C   -0.34307972289617      0.06049813366448     -0.23401058438813
  C   -0.13937805695584      0.08339738963021      1.17663028478294
  Cl  1.56624651077626     -0.12908985605960     -1.22015622208000
  F   -2.62344557301726     -0.37550920278292      1.54965926109588
  H   -1.55639067505409     -0.01668841729400      1.46184611527810
  H   0.31252283813388      1.00815669042958      1.54223387114989
  N   -1.00342457720411     -1.09721497600853     -0.80302838115330
  H   -1.86247222560115     -1.17206476690571     -0.25555156276111
  H   -0.44075578653048     -1.91057194560341     -0.58098012867336
  N   0.41234484193127     -1.09409957443131      1.82566547494364
  H   1.17910702550991     -1.45547200819220      1.26131911857918
  H   -0.30148712987762     -1.81004592013626      1.88528352636071
  C   -0.87021382109470      1.33391209727324     -0.84222432716942
  H   -0.82608426271401      1.27047542991755     -1.92832421244979
  H   -1.91341390472885      1.44603290840950     -0.52686988463088
  H   -0.29736548067704      2.19735401808937     -0.49939234888433
