16
Coordinates from ORCA-job run
  C   -0.04926457087277     -0.01861415728269     -0.35849437368962
  C   -0.13684558626376     -0.10356393391600      1.09816402295184
  F   1.26366576540458     -0.01568272577028     -0.90616600671832
  H   -2.45077536023344      0.65929616882861      1.36217307519019
  H   -1.51806082436155      0.13867524915552      1.29116952174654
  H   0.24245049584923     -1.05423566582282      1.47803049907269
  N   -0.71957030567719      1.08732133070202     -0.97196273291277
  H   -0.15039736868693      1.90298471538133     -0.77770457641764
  H   -1.60058744387389      1.20614628007060     -0.46493924555972
  C   0.39329437051303      1.12218062711094      1.81037241968565
  H   -0.37737725366383      1.91110788803155      1.81560141141287
  H   0.60087863600789      0.88381672579477      2.85868892740176
  H   1.31472813020844      1.54081176749846      1.38221702800248
  N   -0.66386302609021     -1.30627792477331     -0.91753451585491
  O   -1.80754452169913     -1.25795632158831     -1.36203704563317
  O   0.01574886343953     -2.32823002342039     -0.82468840867788
