11
Coordinates from ORCA-job run
  C   0.79196419692138     -0.00520520175295     -0.00411152622823
  H   1.39260544289532      1.96698526002761      0.59391976261188
  F   -1.18804634825118     -0.24034197379367      0.07464821313965
  Cl  2.86724249338858     -0.13272405989849     -0.24166743047823
  C   0.60349475740862      1.48115772268920      0.02268796276458
  H   0.57077478594120     -0.62933100321789     -0.84410911298808
  H   -0.37224417505483      1.68222888538716      0.45016173068995
  H   0.63735430724563      1.84287033280162     -1.00673507243722
  N   0.69857690674404     -0.72355057816091      1.28229888603924
  O   0.66638159263955     -0.04411715287650      2.30542203232004
  O   0.70528604012167     -1.94735223120519      1.24545455456643
