17
Coordinates from ORCA-job run
  C   -0.10862241143628     -0.00659262838382     -0.39147538052429
  C   -0.13891179464738     -0.02043492177807      1.12475741092394
  Cl  1.55329661335845      0.16260171726741     -1.12706856819382
  H   -2.92470521088039      0.68252634588444      1.45596067137111
  H   -1.22926422561435      0.02973421189332      1.39507847565096
  H   -0.46452100300175     -0.97584274463019     -0.74933729865481
  C   -0.99704136370854      1.10196433649718     -0.91813419451790
  H   -1.16489072986428      0.97710626645597     -1.99066727480016
  H   -1.94461333420109      1.07078248961760     -0.35512504480107
  H   -0.53055251631922      2.07626822388076     -0.75698270945469
  C   0.57462342134474      1.12093415438560      1.81727404680314
  H   0.07159257023048      2.05398350960520      1.55779611126842
  H   0.48256553068292      0.99544015228195      2.89921900825058
  H   1.62942367525474      1.17194899088964      1.54035465809553
  N   0.39028684841127     -1.30815797642381      1.67215392441850
  O   -0.31978992031180     -1.92129284354507      2.47027185207678
  O   1.51769385070250     -1.67481928389811      1.32961431208779
