11
Coordinates from ORCA-job run
  C   0.31266696059082     -0.00350650458493     -0.53510339031814
  C   -0.46318200719339      0.05916976409875      0.77644334935778
  F   1.42854417606980     -0.85575843710501     -0.45074426027090
  F   -1.14837310555505      0.23466718568943      3.60193030452919
  H   -1.50063634370769     -0.27428662565831      0.60715941605462
  H   -0.28829169316908     -0.38563931811755     -1.36945879483050
  H   0.69399941150714      0.99170399308970     -0.77434508131151
  H   -0.04074232857325     -0.66325534076607      1.47667717567841
  N   -0.37631689860769      1.36069088050726      1.42869287084261
  H   -0.64566657585599      1.09959303837642      2.42847273001328
  H   -1.13327159550561      1.93811136447032      1.07378568025517
