17
Coordinates from ORCA-job run
  C   -0.17560473520400      0.02948838299376     -0.39169552444479
  C   -0.27471993858665      0.11940825969698      1.07118812469132
  Cl  1.67086719054688     -0.02667939456671     -1.02236124794325
  H   -2.38541000651617      0.11644138734109      2.29175834548953
  H   -1.45776818436166      0.09360517777356      1.39623385340919
  C   -0.71712697509469     -1.23665758275240     -0.87995686703712
  N   -1.18398330697689     -2.23984124431552     -1.27933615885188
  N   0.13351547594465      1.40772168254974      1.58000660616444
  H   1.04586851357004      1.28455771784343      2.00748088034325
  H   -0.53019180210310      1.62049621241678      2.32811365647252
  N   0.32447429262019     -0.98944707054979      1.80090889847432
  H   0.53923565007115     -1.76329832544240      1.18181869412281
  H   -0.39572224288865     -1.30553783662316      2.45517179823532
  C   -0.79657878858900      1.21071865824837     -1.10904100900199
  H   -0.67068421551463      1.12761471735663     -2.18990086019288
  H   -1.86227375864953      1.24209468915034     -0.85828505576612
  H   -0.32228716826792      2.11412456887929     -0.73089413416467
