13
Coordinates from ORCA-job run
  C   -0.31568907886811      0.04216512899218     -0.33962263774401
  C   0.34296851253203     -0.06046055515414      0.84813309023681
  F   1.89036714554131     -0.20942886316388     -0.72142366760481
  Br  -3.36353972771252      0.13043529832088      1.90870117363026
  H   -2.05317366497394     -0.02678302392861      1.31988748601876
  H   -0.47945136951385      0.99115173897942     -0.82742474113098
  C   0.74476515212828      1.15741592205639      1.47564182125205
  N   1.03742785054563      2.16349700251517      2.01313567084716
  C   0.71594787015054     -1.27469610512599      1.49821056076586
  N   1.02206194469773     -2.20175291509930      2.15703310903509
  N   -0.74351875231992     -1.09502573156908     -1.09471419303329
  O   -1.07892887334574     -0.87308221791405     -2.26359773301658
  O   -0.78402700886145     -2.19855567890900     -0.54474993925633
