14
Coordinates from ORCA-job run
  C   0.35345862173936      0.02051525820726     -0.01959107825009
  H   1.74345865481833      1.59755926864462     -0.14013566025095
  Br  -1.88099186022033      0.02734847520927      0.10873516735068
  H   2.39199995568729     -0.42870842266021      0.36826584748227
  C   0.66487832469319      1.53115062932351     -0.01149485924406
  H   0.50509668045563     -0.54178380262425      0.88604974164057
  N   0.52942942177237     -0.57428461388219     -1.32898711031644
  H   -0.16184301497048     -1.30543378898336     -1.44703767992428
  H   1.45804282043573     -0.97865851676996     -1.28481989764857
  C   0.36168390994212      2.12377990407328      1.29563782711726
  N   0.15511945134614      2.61335400921133      2.34267445151750
  N   0.04357243292445      2.30878300558813     -1.08173024677928
  H   -0.96193410014982      2.22646881106134     -0.96902025387008
  H   0.26048870152602      1.79007978360123     -1.92901624882453
