15
Coordinates from ORCA-job run
  C   0.57985599695711     -0.03183872450290     -0.01867912349093
  H   1.77974736551827      1.76948886957827      0.15290804361753
  F   -1.08416567165127      0.00040710386711     -0.30235527782699
  H   2.48208274147964     -0.27050465468669      0.05690013513850
  C   0.74319453152489      1.49138538834885      0.01130430008074
  H   0.80639622599887     -0.48552904287569     -0.96796855408720
  N   0.45282771995423     -0.75757696320373      1.21522022334039
  H   1.31855663891652     -1.24510351037860      1.37183778066245
  H   -0.32600524816648     -1.39251554086923      1.09906551927035
  N   0.07521381992247      2.01955400407680      1.29404530571145
  O   -1.07550021820754      2.45237437735200      1.22736709293912
  O   0.76175821986694      2.02352175121714      2.31238575572949
  N   0.18823823995526      2.07207571025867     -1.16470269335467
  H   0.19931542538456      3.08161823249775     -1.10292256876842
  H   -0.76593578745347      1.73961299932023     -1.22736593896181
