14
Coordinates from ORCA-job run
  C   -0.23990076934109      0.16797347079263     -0.29321316008543
  C   -0.12027700416946      0.36497071173493      1.25610682947964
  Cl  1.32683071545993      0.61960903277522     -1.11485577302679
  Cl  -3.31918510096151     -0.61069929355558      1.11886526265451
  H   -0.88454278796810      1.07575564391077      1.57402502414921
  H   -0.38788840402689     -0.57796253073412      1.73531392787343
  N   -0.47058826856126     -1.22712259759854     -0.53716573200607
  H   -0.66300502846686     -1.32200186397594     -1.52982718018587
  H   -1.33775222799184     -1.45312153109815     -0.04285351547560
  N   -1.25063795903074      0.98928304471607     -0.91633756619646
  H   -1.08233394537104      1.96867124801569     -0.71168005670996
  H   -2.13458949878050      0.71241466165886     -0.48113006439721
  C   1.17528416504853      0.79548867286723      1.76717450259216
  N   2.18607611416084      1.14510133049094      2.25151750133442
