14
Coordinates from ORCA-job run
  C   -0.03724318152730      0.51574964805512     -0.04468491842259
  C   -0.31430380101556     -0.29317728534579      1.17121424478813
  Br  1.21356473152625      2.26314053221640     -2.74482948992112
  Cl  -3.60937938346825      1.05447364557397      0.75135966064291
  H   -1.38633165848506     -0.28064521164927      1.36967465446919
  H   0.96405926240567      0.57165442172212     -0.47408123700079
  H   -0.01366426346588     -1.32405851614922      0.95882361090555
  N   -0.92324971087751      1.22026129152686     -0.63743888711402
  H   -0.56832912687981      1.75411256365183     -1.45769250482204
  H   -1.91659409081714      1.23923074170942     -0.27642258720640
  C   0.49034370623402      0.26479935327393      2.36926764434669
  H   1.03320951383725      1.17619217549196      2.10784388079026
  H   -0.18743513771124      0.51867825848253      3.18472036389433
  H   1.22059314024464     -0.45720161855984      2.73833556464972
