16
Coordinates from ORCA-job run
  C   0.53147810764442     -0.10323557353562      0.00467420955074
  H   1.62878943496285      1.74905527650059      0.11470168829026
  F   -1.12806199184129     -0.07984763395513     -0.06490567532649
  H   2.42085939699070     -0.09103242019164      0.03512732949073
  C   0.58457072999696      1.44944412138388      0.02112601620019
  N   0.65369078729661     -0.74152751585987     -1.28078388003046
  H   -0.15475365046450     -1.34056283018305     -1.40256206448827
  H   1.52744815048169     -1.23975080220320     -1.30668592803782
  C   0.66113928812091     -0.81648501279559      1.34518048719428
  H   1.16317252412834     -1.77092081804446      1.19336795884980
  H   1.27272071439623     -0.24206895075299      2.03922345396899
  H   -0.33455627392448     -0.97921669550347      1.77359251376890
  C   -0.16484407600230      2.00198327389567      1.15746550409225
  N   -0.67771988985699      2.46638478097920      2.10666033217877
  C   0.05360026007639      2.00693952907951     -1.22586963039164
  N   -0.32122351200559      2.53169127118620     -2.20663231531014
