11
Coordinates from ORCA-job run
  C   0.67249471222634     -0.05861501118968     -0.02219421186016
  H   1.73135745885388      1.81049901150679     -0.04623884800822
  F   -1.10539656696053     -0.02331063879697     -0.01724877436877
  F   2.42155500780864     -0.19612823165300      0.09386865750627
  C   0.69994261118612      1.46229262865760     -0.04282351322816
  H   0.61080145323324     -0.58421228543132      0.91277826460490
  H   0.19487045845990      1.80792245329604      0.86040054677497
  C   0.67758211892094     -0.81601068026888     -1.25856404829537
  N   0.68969414737738     -1.43341688804619     -2.25710679355920
  C   -0.00876332515249      2.04154481790249     -1.18352022006157
  N   -0.50467807595342      2.59117482402310     -2.09399105950468
