15
Coordinates from ORCA-job run
  C   -0.51481186031425     -0.11493583249276     -0.26935131293487
  C   -0.24874282694830     -0.30732719091471      1.25796642204228
  Cl  0.40274072164081     -1.40025332397014     -1.20159490551314
  Cl  -3.41728018473468      0.89902109297460      0.49404344899137
  H   -1.06148714317713     -0.93306187637136      1.63952248073141
  H   -1.56144857152489     -0.33823453413874     -0.44463919961723
  N   -0.25648284358180      1.17378321978696     -0.81150950547602
  H   0.50032868363524      1.64804194794005     -0.33555653759163
  H   -1.11496092100473      1.70565497492058     -0.68977113382533
  C   -0.34773687031274      0.98864082125478      1.93707871936887
  N   -0.24583218918434      2.00318483080141      2.52026099980522
  C   1.10858720135489     -0.91143815404166      1.64682951373895
  H   1.92749185935967     -0.36106044981300      1.17837133037043
  H   1.23613655994701     -0.86279503982742      2.73054813579416
  H   1.17337838484522     -1.95078048610855      1.32972154411548
