13
Coordinates from ORCA-job run
  C   -0.18632725791515      0.03241264260843     -0.36474917123391
  C   -0.24923068559683     -0.14716648228432      1.06793421345623
  Br  1.76726500567293      0.36657879005495     -1.16954515108467
  H   -2.33935078213958     -0.04278906334207      2.31862786637555
  H   -1.44252439564058     -0.15239319454897      1.40570338952888
  H   -0.47270522013384     -0.86073029934982     -0.91226045386580
  N   0.28838244468844      0.95050408806638      1.86293755134742
  H   -0.45663034537564      1.18541853382150      2.52714437354664
  H   0.45143046276823      1.76137992697727      1.27602818825325
  N   0.20684212280869     -1.44513286643839      1.52080821854222
  H   -0.37737198026447     -1.67255810540699      2.32571994262338
  H   1.15210416081272     -1.32327193191163      1.87269070721913
  H   -0.68537352968493      0.93221796175366     -0.72354967470831
