15
Coordinates from ORCA-job run
  C   -0.65105225672874      0.00010158942278     -0.11092884358122
  C   -0.16891214415989     -0.14325225882321      1.19403903138562
  Cl  1.85908710352330      1.03340162073835     -1.30981859409838
  Cl  -2.64924740194534      0.18212516986579      2.73011784968140
  H   -1.29390641928138     -0.17387538119476      1.80462247267717
  H   0.25519566564514     -1.12131880422339      1.40198343099208
  N   -1.01091578743274     -1.21499715858836     -0.88248759703044
  O   -1.51039834779949     -1.04220012273056     -1.99469119745074
  O   -0.79029032016055     -2.30530495160558     -0.36155740852564
  N   0.50834257454300      0.97623200512980      1.78639124599446
  H   -0.14598543161928      1.65851625751660      2.14701117623063
  H   1.14827643125317      1.37581304672667      1.10284307828971
  N   -1.10711720215479      1.11107712733380     -0.65575304584564
  H   -1.29300788995744      1.05894052983739     -1.64753381873935
  H   -0.62568857372495      1.94429133059465     -0.34857777997964
