13
Coordinates from ORCA-job run
  C   -0.32557598215112     -0.00296643398242     -0.30096983099695
  C   -0.18310914304685     -0.03724831598356      1.07756561514934
  Br  1.98910117686447      0.07430248811333     -1.47206069880845
  Cl  -2.95221647868076      0.19334916558770      2.14033342036361
  H   -1.60586895312037      0.02205656530422      1.51870950709311
  H   0.13533528567544      0.88262122232217      1.56145847769158
  H   0.14967664679320     -0.96117652184314      1.54062838481424
  C   -0.68753714907543     -1.24253989370597     -0.94371143247190
  N   -1.07904041426858     -2.24210075673928     -1.42915370983066
  C   -0.84349360103796      1.24416608173217     -0.96731678553863
  H   -0.71470606257592      1.19375893998353     -2.04603518100850
  H   -1.90849122184615      1.35277954426915     -0.72404837614827
  H   -0.30052410352996      2.11223791494209     -0.59273939030852
