14
Coordinates from ORCA-job run
  C   -0.52170643571892      0.27944117552216     -0.26427365693976
  C   0.09615659941871      0.14600228604390      0.92762769023667
  Cl  2.10989732448527     -2.39002594069398     -1.09792550471410
  Br  -3.19837424228014     -0.00320631233533      2.20124420171144
  H   -1.89411390798026      0.02468326640281      1.52463766593400
  H   0.28366012107982      1.00687984817527      1.56394768772039
  H   0.52988501388972     -0.80872834221150      1.20581664892588
  C   -1.03075676898843      1.59664810135477     -0.76918708779931
  H   -0.56875926681677      1.80411551530003     -1.73859643986588
  H   -2.10969563953376      1.53318931569724     -0.94163533272056
  H   -0.81919397129312      2.42026445261703     -0.08229233994651
  N   -0.75043566459500     -0.81181724085508     -1.16561336629992
  H   -1.19083721335977     -1.56643530146055     -0.64791167341374
  H   0.17159405169263     -1.20817082355674     -1.40254849282856
