14
Coordinates from ORCA-job run
  C   -0.10048298598287      0.05359632118174     -0.36040890389902
  C   -0.20516028254349     -0.09184459266445      1.16624058981963
  Cl  1.59132026637769      0.29426830439214     -0.84615047753325
  Cl  -3.28214844419198      1.33498524419880      1.23192518391797
  H   -1.27503014527236     -0.10170436869550      1.41622861713368
  H   0.27681367084444     -1.01889060099698      1.49270664931664
  N   -0.56425988296531     -1.32831857947752     -0.90421309935793
  O   -1.74210496641629     -1.56566083666862     -0.67192831803531
  O   0.22161887826986     -2.06721226904546     -1.48425585545068
  N   -0.93397679002745      1.02970812655405     -0.95532263617057
  H   -0.44498646137955      1.91152446414168     -1.02136293450739
  H   -1.78199072805765      1.16739127510111     -0.38303207785049
  C   0.42055053653074      1.03713132522306      1.84247870980362
  N   0.95016733481423      1.92917618675596      2.39097455281310
