14
Coordinates from ORCA-job run
  C   -0.17516639050187     -0.02624906514667     -0.35771191296414
  C   -0.19754369407098     -0.05708924651763      1.09828440001206
  Cl  1.51023829316293      0.02486972277180     -1.18957601353114
  H   -2.58761801779000      0.28528434422511      2.01823974651596
  H   -1.37114927019574      0.00724745953625      1.44425974376293
  H   -0.69356132265376      0.82791481543766     -0.78872504023202
  H   0.21340293998818     -0.99284444110957      1.48311914591066
  C   0.40721878645774      1.17501658170184      1.73974971498750
  H   -0.04010723696571      2.07926773210803      1.31364485329118
  H   0.15432778054773      1.17771452117511      2.80419754002595
  H   1.49433303730418      1.23901778098166      1.62468506368356
  N   -0.84206067096173     -1.23564914792602     -0.94492800776205
  O   -1.71737121797589     -1.02742024348758     -1.78569033267505
  O   -0.48811301634509     -2.34091081374999     -0.54773890102540
