20
Coordinates from ORCA-job run
  C   -0.12318279897385      0.02243432403323     -0.40928048391684
  C   -0.11241487868205     -0.02954438564683      1.05567722226619
  F   1.14686270588860     -0.12819319669960     -1.03839325120746
  H   -2.30921165970729      0.03022014696763      2.17062248264464
  H   -1.35490095790156     -0.05226872490937      1.51877897839376
  C   -0.75575131866847      1.25771493968031     -1.00823253252590
  H   -0.90968933229236      1.12178438482997     -2.08091115769516
  H   -1.71099052352355      1.45931691532045     -0.52272802160599
  H   -0.07903925699403      2.09933728175152     -0.85769074078407
  C   0.33917186976954      1.25413209490492      1.71878344914804
  H   -0.26724716170614      2.11182703994189      1.41190314415124
  H   0.17021491021149      1.14445649868039      2.79761678709103
  H   1.40132771420413      1.49208332157341      1.55631580085783
  C   0.55797979965647     -1.23425709878286      1.67731750660389
  H   1.65401388220776     -1.14846874268521      1.71584786730559
  H   0.18633452472102     -1.32950405445875      2.70780219885700
  H   0.31960168619412     -2.16496131947361      1.15796022075113
  N   -0.90375505650348     -1.19189210127604     -0.92457263848899
  O   -2.12022654662743     -1.05760726355658     -1.05512935914935
  O   -0.28823760127293     -2.23786006019488     -1.13095747269660
