14
Coordinates from ORCA-job run
  C   -0.32400120561090      0.07644271151580     -0.21818265634231
  C   0.01666837058205      0.24202942414355      1.11455127895388
  F   1.19436662629114     -1.27604596229526     -0.84549840536603
  Br  -2.77996587171684      0.20273691108876      2.43544947666487
  H   -1.43754003772776      0.23580905849934      1.43634914960300
  H   -0.81545428028636     -0.83744445711936     -0.50909786109795
  C   -0.42203904907536      1.20336289975867     -1.08473203086344
  N   -0.50306842758710      2.14361530332471     -1.79172751486022
  N   0.52851579665184     -0.90982334922294      1.75292820242347
  H   0.86311901411656     -1.48644116475635      0.96694658920109
  H   -0.15062085018309     -1.37402787321498      2.34416571792534
  N   0.47735742021528      1.47892549671547      1.63129285880152
  H   0.79298908786395      1.32917433146024      2.57904550532037
  H   -0.23138659353338      2.20055667010236      1.60234968963641
