13
Coordinates from ORCA-job run
  C   0.51361766671902     -0.09251151317850      0.05247455466500
  H   1.65480299726901      1.69767670182748      0.37287404450446
  F   -1.11969919561768     -0.14144506902203      0.33242208752903
  H   2.28232779018572     -0.08970678121417     -0.53586606411483
  C   0.62822262576297      1.44098277980616      0.12181723021399
  H   0.41713129533746     -0.55202642285014     -0.91504677604858
  N   0.89859266444971     -0.78603108856759      1.25024540847022
  H   1.74198760517477     -1.30214821058148      1.06074859232997
  H   0.12722682837132     -1.39489960451807      1.49173162634879
  C   -0.24691356339396      2.02995386764297      1.15312628167757
  N   -0.83361063672916      2.58285333914256      2.00670354546495
  C   0.31509647135487      2.03010261191335     -1.18303061255722
  N   0.06676745111594      2.50687938959941     -2.22647991848336
