13
Coordinates from ORCA-job run
  C   0.62564498897157     -0.05128959168201     -0.01817543965870
  H   1.28685325528281      1.84617673499972     -0.61870874595260
  F   -1.43626149949251     -0.29800978192102     -0.50125257027768
  Cl  2.77625110070758     -0.09792348160161      0.87904080621882
  C   0.46394846868628      1.43548477582194     -0.02008083076497
  H   0.34132050380833     -0.59762547878681      0.86360782210595
  H   -0.48954814858297      1.60610777786405     -0.51854186488797
  N   0.88068547063711     -0.66287378784354     -1.24424798503147
  H   -0.06153086133306     -0.58536312199920     -1.64761886539202
  H   1.05713462312458     -1.64579485813498     -1.07855384933200
  N   0.40112696328524      1.96036709953777      1.34251725777277
  H   0.23276545894144      2.95809259460690      1.29612693543740
  H   1.31761967596361      1.81788111913877      1.75272732976247
