13
Coordinates from ORCA-job run
  C   0.55765510851384     -0.04923163281250     -0.00789283976579
  H   1.56713709783472      1.84685845440606     -0.27771279786885
  F   -1.06690238159734     -0.23732358948932     -0.29555134990280
  H   2.40295669156833     -0.08851879743273      0.35863801778189
  C   0.57259864613768      1.47612416938401     -0.04617017868039
  H   0.91257654302289     -0.58823170938091     -0.87202264671597
  H   -0.11086035279552      1.75881417947932     -0.85211954950622
  C   0.67426627765037     -0.74922272517849      1.24583294968597
  N   0.53870439729850     -1.33231210573891      2.26559454700288
  C   0.07684532172903      2.06764090624843      1.26529918217732
  H   -0.90436141726972      1.65541710739190      1.50510892147233
  H   0.76372679175357      1.81946592067458      2.07819075799369
  H   -0.00436272384635      3.15802982244855      1.20087498632597
