13
Coordinates from ORCA-job run
  C   -0.43510625088877     -0.09618992484961     -0.90860837649490
  C   -0.02732553184933      0.23971852292118      0.32209636206124
  Cl  2.28756477598828      2.58516089377244     -0.82229827093325
  H   -1.88395427269056     -1.54600635619538      4.24939616904263
  H   -2.19722806642731     -1.85938726003857      4.84002095346286
  H   -1.25280665598229     -0.80448519635980     -1.02221251378644
  H   0.76596551932388      0.94911511400330      0.53853136900116
  N   0.14197030858229      0.42270252165434     -2.10994645136577
  H   1.14720021105601      0.27780742240719     -2.05852531643171
  H   0.10554433167007      1.43896409082829     -2.05839671213298
  N   -0.67137782569480     -0.34651048246430      1.49007681354104
  O   -1.58680523641851     -1.15863622185653      1.34387470219030
  O   -0.24246130666893      0.01929687617749      2.58755127184587
