16
Coordinates from ORCA-job run
  C   0.94228289960685     -0.02237113580933     -0.08060989984806
  H   1.71162454856210      1.82166948196397      0.53355004942703
  F   -1.44266427732785     -0.20102666226510     -0.03985111165054
  F   2.13692173462859     -0.08764997874348     -0.75459412070974
  C   0.73077235479996      1.48831369624329      0.16506241375678
  C   -0.07087967200995     -0.81771249251048     -0.84535918363909
  N   -0.06528461284446     -1.63248419019893     -1.71054182367418
  N   1.21515053634332     -0.73056805509486      1.25297295022433
  O   0.38214629004505     -0.61055097765101      2.14388957845155
  O   2.24516811814237     -1.39296024823229      1.32613668056431
  C   -0.35267097639453      2.00797030195032      1.11409992990687
  H   -1.32132434449262      1.66201795979538      0.76837777575582
  H   -0.18702803879329      1.62994216498053      2.12036666527618
  H   -0.29878562543273      3.10085336463157      1.12700501259480
  C   0.56982039070605      2.11722523602109     -1.15126233690652
  N   0.45057067446116      2.69556153491934     -2.16609257952954
