15
Coordinates from ORCA-job run
  C   -0.30538370212412     -0.10699595730627     -0.24365216473535
  C   0.18071671429042     -0.15618267075880      1.03269343584770
  F   1.24588149732189      1.28350877545667     -1.03807676436543
  Br  -2.88140400755962      0.18567613432994      2.22084019516778
  H   -1.57872872015918     -0.12396448505570      1.50284543671701
  H   -0.71726978460562      0.83798561190422     -0.56566200935345
  C   -0.40796013295836     -1.25545044029543     -1.18123075279233
  H   0.26673346272616     -1.00352184999274     -2.00446417608625
  H   -0.09088348368886     -2.19685432762932     -0.72839519699256
  H   -1.41900828254277     -1.36528249035148     -1.58625754846285
  N   0.67896115844699      1.05452103959786      1.60894164521343
  H   -0.05457172936793      1.58358368929848      2.06818698266746
  H   1.01426580128308      1.53960888942324      0.75783074631312
  C   0.67027184797277     -1.39134755434528      1.58052047023888
  N   1.02538936096519     -2.41365436427538      2.04609970062284
