14
Coordinates from ORCA-job run
  C   -0.38053241669064      0.02764191385805     -0.31790609731161
  C   0.01008269068697      0.05204349512543      0.99462119377760
  F   1.22725893339979     -0.99756711842276     -1.10815797203180
  Br  -3.07608032865944      0.28086142877797      2.40185569926902
  H   -1.87512344891012      0.19971562064395      1.54241241282781
  H   0.26236736249452      1.02071197622196      1.41750600538847
  C   -0.54586191222700      1.27510110387795     -0.98997326011600
  N   -0.62920990070384      2.33770996979432     -1.49001176859919
  N   0.40059984295077     -1.09776827729742      1.66970215949324
  H   1.10067613131263     -0.88545128748637      2.36512248702797
  H   0.76433749343291     -1.73476194260590      0.96353715881388
  N   -1.09626576398236     -1.08826945888663     -0.94393494406350
  O   -1.56504693772628     -0.88822384915713     -2.06278447763782
  O   -1.24023174537791     -2.11913357444340     -0.29477859683809
