16
Coordinates from ORCA-job run
  C   -0.27506424304575     -0.03479441316553     -0.34989028753112
  C   -0.01623085199755     -0.05539278284010      1.14717902462684
  Br  1.48909028146304      0.09491894808786     -1.33726270402490
  F   -2.75787671308346     -0.31263041151909      1.09758581733174
  H   -1.05423097784349     -0.21057835070469      1.51721694722771
  H   0.58612540799258     -0.94660423463161      1.35450514368576
  C   -1.00969891101457     -1.27903320271432     -0.81066170134583
  H   -0.40727966208771     -2.16204916457715     -0.57973852334296
  H   -1.93451135296803     -1.24144320372703     -0.19960202740092
  H   -1.21245215950165     -1.24839108844718     -1.88354591383726
  C   -1.00064398507930      1.17460115340750     -0.74177400971480
  N   -1.51185849268478      2.17231393483691     -1.09467302261084
  C   0.63328106133905      1.21188999478219      1.71493161871758
  H   -0.01776445710994      1.67154746230976      2.46225975818084
  H   1.59787605239041      1.00114007906668      2.18516514713565
  H   0.81444900323116      1.96235527983582      0.94118473290254
