13
Coordinates from ORCA-job run
  C   -0.43345143138675      0.00261436686977     -0.11296294835242
  C   0.77820882588862      0.06850835270011      0.86905390191562
  F   0.17742280449907     -0.11170290744153     -1.39770844454667
  Br  -3.82523450073376     -1.58069551535178     -1.90162663053314
  H   0.87260695188244      1.07156706308700      1.29143882549050
  H   1.68020612430856     -0.12229384690435      0.28393675288089
  N   -1.34050965394928     -0.99696762361758      0.19717507044028
  H   -2.14287189668841     -1.05660876502048     -0.45452103043455
  H   -0.90175926743569     -1.90673368012437      0.26866841539811
  C   -1.10459453674464      1.32180485170313     -0.13705825597052
  N   -1.54527925288420      2.40900300612008     -0.10412152053478
  C   0.71576630810260     -0.88974395941287      1.96782393416256
  N   0.72932952514143     -1.65514134260711      2.85706193008413
