20
Coordinates from ORCA-job run
  C   -0.27454238995946      0.04020048533731     -0.30343332874369
  C   -0.10352924673069     -0.01599303954436      1.22326139351670
  Br  1.59895158876501      0.18269032186261     -1.14506066347372
  F   -3.03101961272354      0.18387805290162      0.66557648290489
  H   -1.16947248236088     -0.03016239271435      1.50005437384600
  C   -0.91379203728655     -1.21330276744769     -0.86771168669940
  H   -0.33432851444914     -2.11522131718178     -0.67032394238819
  H   -1.90120391542548     -1.24231780674794     -0.39163005894302
  H   -1.03312384859598     -1.08823359329812     -1.94490427817516
  N   -1.05489663523779      1.15232297209596     -0.74608629897021
  H   -0.70528819042400      1.99804487492751     -0.30577228910566
  H   -1.99062890540646      0.92828966877136     -0.28863270241846
  C   0.55219072028692      1.25103649122565      1.80374333333880
  H   0.92212993595932      1.92325304299412      1.02647328546118
  H   -0.15383000863489      1.81004929015057      2.42407984987545
  H   1.41694654510401      0.99674196215168      2.42490223723732
  C   0.57978309877668     -1.27009897708426      1.75882605447742
  H   1.61424529399931     -1.33422995780406      1.40589172549953
  H   0.59463123815579     -1.24095074803265      2.85386684862364
  H   0.05372736618780     -2.18027656256323      1.46553966413651
