14
Coordinates from ORCA-job run
  C   -0.18294679657223     -0.06442698083249     -0.47750942941020
  C   -0.07855911316144      0.10792463343048      1.08329157032002
  F   1.14080927743483     -0.19644405910465     -0.94104379861413
  H   -2.70273161384531     -0.66055014750705      0.77421472535127
  H   -1.16090470261047      0.11158280245840      1.38501689218285
  N   -1.01515626399218     -1.11388855076437     -0.85318584224845
  H   -1.96389337194036     -0.94284849058198     -0.13271500747163
  H   -0.59277313763217     -1.97554384659261     -0.50604559994157
  C   -0.69703776807347      1.20920293993180     -1.03697634627348
  N   -1.09189947639382      2.22372464162743     -1.47664497377168
  C   0.53852615382172     -1.08400174570299      1.65253235919133
  N   1.01705117346074     -2.05574295827822      2.10773034056868
  C   0.62797455895785      1.30868454496446      1.50923036070838
  N   1.18818108054631      2.28630721695175      1.84472474940856
