13
Coordinates from ORCA-job run
  C   0.69129174523287      0.01498728996801      0.03546190341860
  H   1.00289529362482      1.92029220033295     -0.87690833078065
  F   -0.74826655070055     -0.54898517540073     -0.73226274723578
  H   2.38384956943951      0.45454137113909      0.64108124139761
  C   0.39680862297115      1.50421360160000     -0.06731307908652
  H   1.28519148457051     -0.48138119030257     -0.71470857036593
  H   -0.65889925782032      1.59686581878291     -0.33338703217369
  N   0.36323214085091     -0.62678973635081      1.29724939541144
  H   1.23126503999055     -0.87079691582708      1.74810399614759
  H   -0.16083218857869     -1.45564136486963      1.04821037289986
  N   0.62287398234538      2.29584884014193      1.14430992565608
  H   1.58628789999035      2.05765223360940      1.38510546362478
  H   0.07315221808350      1.83000302717653      1.86195746108660
