16
Coordinates from ORCA-job run
  C   0.66704249466076     -0.01608422800190     -0.07924735861869
  H   1.69164099576044      1.89419466397804     -0.06381744470452
  F   -1.31346137775550      0.16182728750717     -0.01871486813122
  Cl  2.84377913329716     -0.33024475529217      0.31816555423048
  C   0.67569168550732      1.49913841589416     -0.09750036312664
  H   0.46135745638526     -0.50496756719658      0.85050892559887
  C   0.64381010274860     -0.76701673290472     -1.38115039681724
  H   -0.36546886001154     -0.72024159021334     -1.78137221512665
  H   1.34817401577221     -0.33304046919265     -2.08907929411035
  H   0.92694957416758     -1.80485380592968     -1.20507791744722
  N   0.08883756177073      1.98886392579865      1.24626922961057
  O   -0.53981473457814      3.04668468381128      1.21789106989793
  O   0.35944950875749      1.37035290348266      2.26687826022830
  N   -0.02654759868208      2.02165573736074     -1.21560367654781
  H   -0.07674668631939      3.02822180050938     -1.13917411196760
  H   -0.95706327148090      1.61581973038891     -1.12638539296822
