10
Coordinates from ORCA-job run
  C   0.61171200286563     -0.02184902771773     -0.02836483347446
  H   1.53348294876729      1.88392653688241     -0.37905173118847
  Cl  -1.64010219891149     -0.31542841480374     -0.48816690652513
  Cl  2.86017894525580     -0.18328326742792      0.52656864846440
  C   0.57802826401995      1.48994851282290     -0.03191933834937
  H   0.83561627365454     -0.53396569378026     -0.94456675114222
  H   0.42841053263261     -0.58292145553947      0.86524387227207
  H   -0.21091376962724      1.84065070515681     -0.69773768372292
  C   0.32298425319575      2.04294565245091      1.29630174950008
  N   0.11407274814716      2.52345645195609      2.34592297416602
