13
Coordinates from ORCA-job run
  C   -0.32133154438725     -0.06618771157033     -0.32872771064872
  C   -0.06502001537752     -0.13768726512507      1.16525563917644
  Cl  1.05274993844076      0.54652465106208     -1.29449789838466
  H   -2.42396764612643      0.78372951451585      0.51417875410313
  H   -1.13385806045935     -0.06948668263438      1.53858462264620
  H   -1.33889420408551      0.60173816064926     -0.26357052046586
  C   -0.72755051241427     -1.36154420289693     -0.82948687008628
  N   -1.12936148035786     -2.37560600848108     -1.27200695351877
  C   0.65833228682202     -1.29438668913222      1.65685233402422
  N   1.19265978611479     -2.27133057289148      2.03516174664994
  N   0.56300980700584      1.12476932506187      1.67974984480972
  O   1.29548320762533      1.03445568263244      2.66554011005134
  O   0.22026843719943      2.16478179881000      1.13269690164330
