13
Coordinates from ORCA-job run
  C   -0.24980599420506     -0.01068053044577     -0.25925152451582
  C   0.05138406518519     -0.07457124664642      1.08625992245311
  Br  1.89370826097420      0.36089907414913     -1.72636461076756
  Br  -2.92657109329536     -0.01969342199351      2.04129202801115
  H   -1.35831639308838     -0.13577811181202      1.19454186338292
  H   -0.43648443916158     -0.93106110761930     -0.79527780197241
  H   -0.71492417478377      0.88636684440432     -0.64814637163729
  N   0.46230518243784      1.06771236550407      1.80347072508982
  H   -0.04227879269906      1.11893160204237      2.68135725794914
  H   0.32135502466926      1.91042618366256      1.26403279092701
  N   0.50367398193421     -1.25790641520256      1.73311368494746
  H   0.19271632718853     -2.07800014105409      1.22820083314439
  H   1.51881804484398     -1.23336509498878      1.73220120298808
