13
Coordinates from ORCA-job run
  C   -0.12768203209734     -0.03625515177047     -0.39370550322090
  C   -0.17884381596538      0.16359493501026      1.09867388476328
  F   1.19142894510580     -0.22601034733517     -0.84755929334322
  H   -2.63271335625725     -0.34899327779987      1.21326360935096
  H   -1.42350774753847      0.05955968303089      1.30279866751360
  H   0.22148643286692     -0.72981946779587      1.58878230231797
  N   -0.89782979846097     -1.17502059627636     -0.82663411614254
  H   -1.80592021877332     -1.07206463010913     -0.34229984133452
  H   -0.45646619085254     -1.98674473148936     -0.40140268270631
  C   -0.62846391785063      1.16903539530163     -1.09865804220752
  N   -1.00665690165397      2.12275721113637     -1.66855676761463
  C   0.44758131919303      1.35769928746016      1.59556277073680
  N   0.90563728228412      2.34897169063691      2.04044501188705
