12
Coordinates from ORCA-job run
  C   -0.25401016571352      0.14319646909375     -0.25657243479499
  C   -0.01973804426516      0.09189958638029      1.24332183388931
  Br  1.47708384530335     -0.36639680495481     -1.17645650710997
  Cl  -3.37807710562471     -0.01329992183079      0.63326517121675
  H   -1.01727747529303      0.18386218111272      1.69218960233249
  H   -0.91884305579135     -0.67453085042577     -0.52612484264339
  H   0.39629299140857     -0.87627970672433      1.52845513424012
  N   -0.69496730022757      1.41568992553005     -0.70131923548138
  H   -1.10259880622500      1.91739382553310      0.07786004705052
  H   -1.44728566799524      1.28553876498970     -1.36492263122301
  C   0.86280330198228      1.14781734071248      1.73430094091104
  N   1.56192748244137      1.98703919058363      2.16400292161250
