15
Coordinates from ORCA-job run
  C   -0.18663848124409     -0.03818777513341     -0.37860738204605
  C   -0.19304834023424      0.00195236093921      1.08068418144589
  Br  1.65819449760378      0.04191173773060     -1.24579978051908
  F   -2.32285256136470      1.16789293549602      1.60823686922271
  H   -1.38534415326208      0.29480585431395      1.36881372677733
  H   0.16288483811290     -0.95227821887269      1.47268105822348
  N   -0.79701734724951     -1.30942591749167     -0.97083322832805
  O   -0.88152358733110     -1.37233702813743     -2.19057658204503
  O   -1.15442852071113     -2.17739084985495     -0.18200931890267
  N   0.46914462889005      1.15135417642868      1.67580663770177
  H   1.20709367968135      1.51224955250811      1.08206243768994
  H   -0.25445897613330      1.85462852071252      1.77761790819883
  N   -0.98353693013924      1.12558963899638     -0.96842113769130
  O   -0.43789821631291      2.21871130614018     -0.99373238552537
  O   -2.13620053030578      0.87419370622453     -1.29021300420240
