15
Coordinates from ORCA-job run
  C   0.59087131757416     -0.12874363398887      0.31114554627085
  H   0.54679677035812      1.60834874364326     -0.88610823076741
  Br  -1.92548794142919     -0.45595850314388     -3.00040904695175
  H   2.89485782629055      0.54195963086458      0.26429385657469
  C   0.30413582267659      1.34864178405420      0.14380625657712
  H   -0.78349918117024      1.44649888320363      0.25195837521349
  N   0.13093859072486     -0.93928286782075     -0.60265127109355
  H   -0.41221433575651     -0.62711059564825     -1.43428099400264
  H   0.23369117309633     -1.93770287532335     -0.50816142816137
  N   0.94092217649474     -0.59680969883703      1.54951038347611
  H   1.79340376038431     -0.10171726503689      1.80231536777586
  H   1.11870644214117     -1.59313479277080      1.55669077485382
  N   0.96993458481349      2.25357874721916      1.05269970228044
  H   1.96385218257597      2.01038817871209      0.96472246084631
  H   0.67851081122566      2.05070426487291      2.00272824710802
