13
Coordinates from ORCA-job run
  C   0.37846979728178     -0.03847568496751     -0.05869623274081
  H   1.41784585888654      1.81720751910602     -0.46591635109394
  F   -1.24330202556955     -0.19560107703686     -0.32696120652078
  H   2.22303838802456     -0.09548986771172      0.38364792077924
  C   0.45274896094951      1.48143965161198     -0.09539321226119
  H   0.37634781981675     -0.55238515029170      0.88710204064032
  H   -0.32969141034531      1.81116942607276     -0.78605996528304
  C   0.93142374312030     -0.76529174881829     -1.17545935850079
  N   1.18865583604463     -1.33738524891810     -2.17624392248389
  C   0.19413406636619      2.05130851786645      1.29009496820548
  H   -0.76995044752350      1.69464487162995      1.66086518384051
  H   0.98389089144570      1.72050135009308      1.97015720897919
  H   0.17564852150242      3.14639744136392      1.28127292643969
