17
Coordinates from ORCA-job run
  C   -0.68618569977605     -0.14505763961182     -0.18763808585466
  C   0.04593736605292     -0.23875792783141      1.01230255882409
  F   1.17050601026169      2.61734289703385     -0.20935165106868
  Br  -2.75117550511358      0.34676207570564      2.57053757567675
  H   -1.32443564225460      0.16401014862801      0.98866324195677
  N   -0.58486411881941      0.90445636377773     -1.07076372258550
  H   0.06623677986248      1.68346758287198     -0.79010521685965
  H   -1.49643088080830      1.21981731044194     -1.37241322208084
  N   0.91606823422564      0.70110811823565      1.45397451395850
  H   0.76772134889427      0.92981150153460      2.42881422077363
  H   1.09382119917284      1.54689837133467      0.82110977571742
  N   -0.08973183096821     -1.45692693404319      1.74030155292276
  H   -0.93167114085121     -1.39676298316538      2.31816808447340
  H   0.72010543054972     -1.54192229927972      2.34056208721048
  N   -1.41604594016986     -1.25752758065927     -0.66773732612802
  H   -1.20950154850914     -2.07129249137735     -0.09879548065052
  H   -1.14270406174919     -1.40274651359591     -1.63062890628599
