14
Coordinates from ORCA-job run
  C   0.50628449039721      0.08661199200382      0.05947110363305
  H   1.93790293661814      1.55863977766775      0.52065815143888
  Cl  -1.42736197767487     -3.04998069241195      0.12214047181336
  F   2.66978153248426     -0.12038564798933     -0.50182456935121
  C   0.95932560248184      1.52326095400672      0.05403316065604
  H   0.22805840793973      2.11526270980889      0.62117711705505
  N   -0.45968831083201     -0.27932422508164     -0.74405084548835
  H   -0.75289588779671      0.32370021694903     -1.49458137698266
  H   -0.84626262709181     -1.24031835578924     -0.66041069147891
  N   0.85313945434337     -0.67558138674316      1.11737155701252
  H   1.87775405012868     -0.69565642444449      1.04698610590648
  H   0.41999203892604     -1.59727098644398      1.08393413849315
  C   1.05551095673858      2.06088694656098     -1.29813419058643
  N   1.03660933333757      2.51740512190656     -2.37862013212096
