16
Coordinates from ORCA-job run
  C   -0.57225115767210      0.41110753071263     -0.37879170422187
  C   0.19133223903899      0.54814649048250      0.83149203765944
  Br  1.16133920346664     -3.18867345086168     -1.33911115601372
  H   -1.25858971508068     -1.18039333888562      1.26662620873436
  H   -0.66413788480690     -0.31935741041019      1.46274019826382
  N   -0.93717722682440     -0.78628663869604     -0.85024674039290
  H   -1.39879113486867     -1.24264619594772      0.24131216930347
  H   -0.16063314305739     -1.50040039886954     -0.89567673646072
  C   -1.47605723271632      1.50403942399508     -0.66483180733114
  N   -2.18308319070079      2.41425220859605     -0.91061910382880
  C   0.28961698897257      1.89793082553992      1.52842071480868
  H   -0.67524052714121      2.40605391595061      1.53749434082291
  H   0.62333520775104      1.75341332376850      2.55784351588784
  H   1.01853510365179      2.53699354394302      1.02346323828814
  C   1.41489289939374     -0.21339583354711      0.99754624887769
  N   2.44717957059368     -0.69136399577042      1.29663857560279
