18
Coordinates from ORCA-job run
  C   0.09462809297509      0.02623136685675     -0.40486839982712
  C   0.10072511157580      0.01919821149932      1.00594272251210
  F   1.41760077420474     -0.13722830620742     -1.14674126653835
  F   -2.31611777128320     -0.22694115341860      2.17585916558829
  H   -1.54945757377946     -0.13845198373966      1.58714093066143
  N   -0.63689908692798     -1.19644514363480     -1.00017189719370
  O   -1.75801279301161     -1.00446198245438     -1.47113186664771
  O   -0.09253363206031     -2.29196817861423     -0.90884491225694
  C   -0.46452577548632      1.23255013114831     -1.01148071252655
  N   -0.85176822833987      2.23576297149047     -1.48859126581612
  C   0.33318923446192      1.33581338468806      1.71841893382117
  H   -0.21673786044969      2.16156202284012      1.25935487616539
  H   -0.02085219633678      1.25797361073733      2.75209301225431
  H   1.39854043576151      1.61809508040766      1.75590572555315
  C   0.75537012548046     -1.18005790578017      1.67887285544455
  H   0.02438936515970     -1.85468101906538      2.14158735708361
  H   1.35739100350422     -1.76715441025016      0.98325438638583
  H   1.42217077455178     -0.83339669650323      2.47826035533664
