15
Coordinates from ORCA-job run
  C   -0.17035884639801     -0.02099681848872     -0.29326883141930
  C   -0.21923411344297     -0.07500240908331      1.19021534852194
  F   1.17100591267939      0.11220122047906     -0.82486540028935
  H   -2.44450346690564      0.43958664330969      2.12718813671504
  H   -1.41909796253614     -0.00718595296341      1.54065824927382
  C   -0.69388245904175     -1.26053482674107     -0.89137810376999
  N   -1.11891221302829     -2.24978375409809     -1.36261232287036
  N   0.28668861231525      1.13492459254548      1.79367474463647
  H   -0.52860924064354      1.61631239783683      2.18712923649317
  H   0.75626247338427      1.74457768967924      1.13710939565121
  N   0.34240207074718     -1.28887558863834      1.74634785519523
  H   1.19999902505909     -1.57033137299934      1.28396513037601
  H   -0.33306623846242     -2.04191887527063      1.69369800608587
  C   -0.90400706854726      1.14034915149629     -0.82401017482546
  N   -1.47612648517916      2.06967790293632     -1.25970126977431
