12
Coordinates from ORCA-job run
  C   -0.46910929149877      0.14474849016563      0.28688190222698
  C   0.57779934383906      0.58924863220228      1.33817301494336
  Cl  0.07488006997739     -1.58865881663088     -0.25588242335439
  Br  -3.47505959125382      0.71239535210593     -2.39384659663278
  H   1.36259602583385     -0.15549422967795      1.47376439815333
  H   -1.44350641928436     -0.05371832894844      0.72878287124312
  H   1.03875753209127      1.51539501483336      0.98690242830930
  N   -0.60860834826392      1.07180000262375     -0.73450032596529
  H   0.21282489675924      1.15587896824647     -1.31860408248441
  H   -1.45680311261994      0.93332182446104     -1.30230292174622
  C   -0.03400177376052      0.84684346882800      2.63946057007264
  N   -0.51159933181942      1.03807962179083      3.69424116523435
