14
Coordinates from ORCA-job run
  C   -0.19059468933333      0.04864916353675     -0.31242509388254
  C   -0.20520719075424     -0.04949227236558      1.13476174037573
  Cl  1.57820613899854      0.01937452793189     -1.14729159084787
  H   -2.67800946167372      0.34698878307720      1.70983548265996
  H   -1.41020257002659      0.05616163764833      1.43461125883256
  H   0.25260396794326      0.82504214657423      1.59965801324617
  H   0.20501383119939     -0.97874304344570      1.52458508032560
  N   -0.79892368901016     -1.21152458297013     -0.91138730366723
  O   -1.59145734361565     -1.08154490930970     -1.84324739307928
  O   -0.46238193182735     -2.28793294599950     -0.42819466154366
  C   -0.88627232196837      1.27125691171191     -0.82948377166977
  H   -0.93516366274019      1.29514462519820     -1.91564053752793
  H   -1.89469126561486      1.26768972284506     -0.38943658874815
  H   -0.35201981157674      2.15021023556704     -0.46552463447360
