17
Coordinates from ORCA-job run
  C   -0.08433011226244      0.07270527207695     -0.42426970333945
  C   -0.01661155823017      0.07917138690029      1.09496125907236
  Cl  1.56080049230398      0.27667233558459     -1.19541136958339
  F   -2.76967725128568     -0.04935498039548      0.92429794155462
  H   -1.08695998024058      0.09324584263374      1.40103509733494
  H   0.56800063384670      0.92579737401733      1.46404681066515
  C   -0.73220284497301     -1.21133604981185     -0.90510154700124
  H   -0.12640275826603     -2.08513717226235     -0.65407167622846
  H   -1.70071684652050     -1.22920641547046     -0.38720052124314
  H   -0.87171661488998     -1.18360148001347     -1.98890925371157
  C   -0.93496221172393      1.27047577299767     -0.81999836017658
  H   -1.03582032072123      1.31358498018225     -1.90791241090661
  H   -1.90313920192337      1.10143243953541     -0.32548843609034
  H   -0.47566655899483      2.20290341007418     -0.47734740721754
  N   0.60526486985630     -1.13801034185975      1.69531073480800
  O   -0.00932150044248     -1.69216436047868      2.60745509430425
  O   1.70602176446721     -1.51006801371036      1.28394374775897
