19
Coordinates from ORCA-job run
  C   -0.10628813839186      0.04378554951338     -0.35526997311192
  C   -0.12785653290424     -0.12850345470907      1.10026559637675
  F   1.19935521599415      0.20599504088258     -0.94004851476996
  H   -2.38949479663353      0.31160570934406      1.83143940122992
  H   -1.48466832168410     -0.08749863476578      1.44482658452408
  C   -0.94216570437634      1.19684130055260     -0.85539215115083
  H   -1.05316017007670      1.14962342025232     -1.94097586862603
  H   -1.92023594449533      1.17194980954631     -0.36909277527056
  H   -0.43967718542662      2.12826060472360     -0.59472546220502
  N   0.21246105077907      1.08224450296411      1.82591087207326
  H   -0.66199635256429      1.57473216818992      2.03929973879568
  H   0.82356261951029      1.69868956269233      1.30313128814525
  C   0.57415671339074     -1.34304537104334      1.66330414771205
  H   1.66492605138227     -1.32530807887847      1.51675404864751
  H   0.38575154211003     -1.35752862671594      2.74131638852069
  H   0.19937816781728     -2.28234710195613      1.24424442073932
  N   -0.61182177637820     -1.23734703719584     -1.00673731764872
  O   0.20474671009555     -2.11818509740011     -1.27133959204813
  O   -1.82639314814817     -1.33390426599657     -1.18659083193334
