16
Coordinates from ORCA-job run
  C   -0.17138579421010      0.05783019534800     -0.32789090763724
  C   -0.14878672823339     -0.00750543762679      1.14954213700106
  Cl  1.52342357641406     -0.01316588342363     -1.16319864941353
  H   -2.46987506213053     -0.38237625349026      2.25935612598318
  H   -1.29126029005594     -0.10090350167813      1.51416086123375
  H   -0.67047475732824     -0.82134931210165     -0.74407102607249
  C   -0.80831223993647      1.26110192077758     -0.85472474695091
  N   -1.32803316063645      2.22824693196443     -1.27366617700272
  C   0.45685673107079     -1.30049283831665      1.65790631970127
  H   1.54854491118878     -1.32555042965327      1.55850676393421
  H   0.18265698586777     -1.41548110302732      2.71160360925809
  H   0.03768046690461     -2.16210313825091      1.12697568182023
  C   0.42705593642924      1.21360310137091      1.83477755775759
  H   0.16664753449101      1.16529605004442      2.89758204659507
  H   1.51910836691273      1.27173021026464      1.74197364624329
  H   -0.00280647674788      2.13902948779862      1.43968675754914
