14
Coordinates from ORCA-job run
  C   0.30457003053010      0.26885476194978     -0.11513278865039
  H   1.42909239069944      1.96935763721821     -0.49040310106178
  Br  -1.28202755586478     -2.96197540775110     -0.91226010181960
  F   2.48248557088608      0.13512318074224      0.73599332024248
  C   0.55306136269010      1.71819893020263      0.10678124804051
  H   0.04483513411324     -0.05413411573378     -1.12366314467392
  H   -0.31632845526831      2.22866658573258     -0.34008669331303
  N   0.09242404220399     -0.62139930938562      0.78634130558278
  H   0.63829048868703     -0.49511647006161      1.63117738780007
  H   -0.21761664330387     -1.55394113939310      0.45613817412264
  C   0.76854022780493      2.13775565612902      1.55107807218778
  H   -0.07218795775264      1.83723165542158      2.18523287940105
  H   1.68599842637126      1.64201200201804      1.86494375303701
  H   0.87024293820342      3.22406603291112      1.62369968910439
