15
Coordinates from ORCA-job run
  C   0.48511147646564     -0.08722885133574      0.18964528431266
  H   1.64751639021631      1.54705070305430      0.90066726254999
  F   -0.94901905461561     -0.27894681515601      0.67021351948786
  H   2.30417583877899     -0.17428413733766     -0.43029491434689
  C   0.74814352147323      1.41670874715895      0.30502000997769
  H   0.98014433112059      1.78255011782455     -0.69687855314477
  C   0.50553764344377     -0.66366545524494     -1.13440724135134
  N   0.20999075692581     -1.08629850646403     -2.19942015333434
  N   1.16002132079559     -0.94086646537531      1.20720788930914
  O   1.47962061214795     -0.39014858771491      2.26783478873833
  O   1.16210074766658     -2.15886478263559      1.02353751947731
  C   -0.40168075859905      2.21259407764032      0.92208773872476
  H   -1.31783057850140      2.12369239085876      0.33799216693182
  H   -0.61224795836276      1.86413638019465      1.93300704276573
  H   -0.11843428895562      3.27003118453264      0.97086763990208
