17
Coordinates from ORCA-job run
  C   -0.22943517043528      0.01889572865186     -0.39403770239956
  C   -0.18892828689724     -0.11190068181357      1.03775656586379
  Br  1.79879906544360      0.14217547126678     -1.27442691317197
  F   -2.65470266948898      0.28703892352414      1.53504356667282
  H   -1.46880818551558     -0.04834322620621      1.27419861365267
  H   -0.50509309706315     -0.92533760514494     -0.86129120380313
  C   0.32705270597610      1.08739394593455      1.81176710573216
  H   -0.22354456594305      1.99550540061881      1.55570913698244
  H   0.17463385824135      0.91812528439690      2.88299311040228
  H   1.39961023252797      1.25302645451763      1.63010236254542
  N   0.37603955293084     -1.39470010425987      1.43971096499712
  H   0.14793795665805     -1.55540485318885      2.41485731477134
  H   1.39266958351354     -1.34022839202613      1.37090235650613
  C   -0.95485907848179      1.21542972366220     -0.95859449363304
  H   -1.06702145070396      1.13820082620061     -2.04152321823918
  H   -1.93193761379117      1.22939650315731     -0.46479191089062
  H   -0.42936283697127      2.14481660070873     -0.73484565598868
