15
Coordinates from ORCA-job run
  C   -0.15527446979588     -0.01900234232772     -0.40208595161222
  C   -0.23578048013072      0.04160573559253      1.06519523042640
  Br  1.70670518563923     -0.15782418368441     -1.14929519540826
  H   -2.16186607433586      0.53755598717176      2.58755475877290
  H   -1.34107423146326      0.01819645687087      1.47968096678589
  H   0.25402544072960     -0.83796912280560      1.49236632790828
  N   -0.85079738068951     -1.23294485758465     -0.99760286662317
  O   -1.23710693879477     -1.14415545485838     -2.15804626362221
  O   -0.94212023942723     -2.22122910280124     -0.27917498735809
  N   0.21194607161671      1.33582593387951      1.53190453210815
  H   1.12230259403575      1.27332430993226      1.96759590288945
  H   -0.48847299315699      1.57588329436261      2.24890325627435
  N   -0.84677773505920      1.19476962573390     -1.01133106005294
  O   -0.19407967694103      2.05441466674232     -1.57728405841382
  O   -2.05810907222684      1.19124905377623     -0.82679059207473
