14
Coordinates from ORCA-job run
  C   -0.26855525368799     -0.09302313275848     -0.27392517706274
  C   0.14509893542500     -0.10782566749762      1.01033498041953
  Br  2.17270238936434      0.72813322979687     -1.89250319951129
  F   -2.58765033166321      0.27402125282432      2.11286710103461
  H   -2.07436001548362     -0.11927187422416      1.45056665160983
  H   -0.19043209573698     -0.96901326193528     -0.90433314380749
  C   -0.83176864652559      1.10291271016168     -0.80640203666872
  N   -1.42759064497586      2.06131040283305     -1.14297987229490
  N   0.43255284286657      0.96617008660986      1.82747311630922
  H   -0.19675428693562      1.07654623413054      2.61219395007619
  H   0.53882713325740      1.81701076167228      1.28989609996659
  N   0.50347273029670     -1.40382098115156      1.61158138889878
  O   -0.38472136119007     -1.92500989323393      2.29522885371216
  O   1.62784860498895     -1.85257986722754      1.42857128731823
