16
Coordinates from ORCA-job run
  C   -0.18578391354335     -0.02541695281279     -0.37446501156623
  C   -0.22304589126391      0.01761441998232      1.07260390237771
  Cl  1.64611237737187     -0.11604094415758     -1.10471300052814
  H   -2.51353274481794     -0.10856624863892      1.94066384625200
  H   -1.49656655018775     -0.06221902545133      1.39429686980885
  N   -0.86760184727422     -1.12772254996893     -1.03061857301091
  H   -1.78287710813084     -1.17048701192886     -0.58047208298331
  H   -0.38689454368617     -1.98624330053882     -0.78659213995649
  N   0.13693175538581      1.31663049838719      1.60692430971408
  H   1.09123279592374      1.30898063593869      1.95730245264076
  H   -0.48176508949468      1.49663689122895      2.39810193689920
  C   0.34693260428074     -1.16041990223755      1.82315879380420
  H   1.44361363366399     -1.11934004017783      1.88819751511971
  H   -0.06963454905428     -1.16167713044873      2.83911674679535
  H   0.07248146717725     -2.11746474721595      1.36635529001909
  H   -0.50803239635025      0.92908540804014     -0.79045085538586
