12
Coordinates from ORCA-job run
  C   0.56690239524823     -0.05880515029018     -0.04096856664271
  H   1.61300927292553      1.81863996067300     -0.23315223945870
  Cl  -1.74973120456264     -0.10841994354808     -0.20663641859505
  Cl  2.81589332141682     -0.32619481557504      0.47173068268122
  C   0.60567924047951      1.44524380081513     -0.05768870574150
  H   0.41072518059008     -0.61112684991996      0.86455578803511
  H   -0.08537032987712      1.85881295004304     -0.78598371562044
  C   0.72101611877673     -0.72076670269219     -1.30306137961062
  N   0.85623396304362     -1.21797685967439     -2.36120053056758
  N   0.19608338397876      2.02699401326455      1.25550469531224
  O   -0.07572027958431      3.22610813297693      1.23394158958538
  O   0.20631893756481      1.31996146392718      2.25462880062267
