17
Coordinates from ORCA-job run
  C   -0.31269777570046     -0.02780786481312     -0.24565768831406
  C   -0.14039892701742     -0.03461794868489      1.14223981651284
  Cl  1.92709527452766      0.03194459654663     -1.06136161835642
  Cl  -2.88102915547474     -0.13893975209346      2.18763382619788
  H   -1.47982312372545     -0.09785770534289      1.48003327123887
  C   -0.79469923993356     -1.24803664249504     -0.97284837153506
  H   -0.25375704782153     -2.12324441193973     -0.62339405821271
  H   -1.86267791756531     -1.38136667055251     -0.75642481943883
  H   -0.65214727770680     -1.13061059571013     -2.04646124653175
  C   -0.71309644670306      1.23396127100056     -0.81075510953502
  N   -1.09939998555924      2.25179667386497     -1.26159069710480
  N   0.29069955227535      1.16573065849543      1.81650204170013
  H   -0.41197189488015      1.89119114319990      1.72471060571209
  H   1.13964607968526      1.48547638755333      1.34962515464957
  N   0.38888222450676     -1.25404194083381      1.66199091254116
  H   0.43610216751477     -1.16324376145351      2.66927704194682
  H   1.33543349357793     -1.34863343674174      1.29356093852929
