12
Coordinates from ORCA-job run
  C   0.41796998453752     -0.02555528940881      0.15136692483757
  H   1.47913636578819      1.55503722626695      1.10570784480820
  F   -1.07231699162741     -0.14603336578713      0.64715306957500
  H   2.19187724367443     -0.08044625642634     -0.40776924586991
  C   0.71198508004333      1.45207065190882      0.34043193206860
  H   0.30692942592662     -0.45029470362161     -0.82952345732324
  H   1.12358809330344      1.85425851722201     -0.58379866894307
  N   1.00851874530960     -0.95838798644201      1.11777428977752
  O   1.36301880143346     -0.50920337123913      2.21414133798764
  O   0.95382201479170     -2.15962175156383      0.84435271875428
  C   -0.45045485024596      2.27195581852377      0.73438607903996
  N   -1.29671391293491      3.03812051056730      1.00867717528743
