14
Coordinates from ORCA-job run
  C   -0.67546731140202     -0.04270390998731     -0.16411210470053
  C   -0.13167848568766     -0.03640633745484      1.11721494375669
  Br  2.55992161825937     -0.25657779858319     -0.73862552695131
  Br  -2.74393161365758      1.02726126194396      2.40451123264264
  H   -1.38763902651483      0.28954079866099      1.70919402563442
  H   0.34188965288508      0.90150115057143      1.40486099404721
  C   -1.11037761441753     -1.28731512952048     -0.72668412481861
  N   -1.50569199128960     -2.30948799110223     -1.15809942246802
  N   -1.03233250976155      1.07292151777120     -0.83791627994059
  H   -0.75827810102001      1.95534720240127     -0.43706310381798
  H   -1.87942873353884      1.07179697198602     -1.38182515257126
  N   0.43792163116630     -1.17241581377908      1.74719530439886
  H   1.39167701667560     -1.23206286536196      1.37930241991438
  H   -0.05060453169674     -2.01453905754580      1.46403679487411
