9
Coordinates from ORCA-job run
  C   0.02629643710757     -0.42082184991386      0.51483934005650
  C   0.39878650020918      0.42858395035533      1.49205318445982
  F   -0.34500832434059      0.47704517138285     -1.83325017878903
  Cl  -3.09970394153885     -0.40398192176093      0.08194813913431
  H   -1.76568988059698     -0.25363839246097     -0.02938903119463
  H   0.16940476157835     -1.48561839690802      0.74815097036427
  H   -0.18145764907443      0.02594227310523     -0.75041025348864
  H   0.29497165265683      1.50501267982033      1.34864414695085
  H   0.81452044399894      0.12747648638002      2.45889368250654
