13
Coordinates from ORCA-job run
  C   -0.14783667713031      0.04061349788380     -0.37669586189796
  C   -0.14875300399694      0.04826209713810      1.12272554988102
  F   1.15043001807197     -0.12424986676733     -0.92848560711525
  H   -2.66704295160089     -0.32924192939536      1.31560166026549
  H   -1.37187283704715     -0.07774595264591      1.34913837396184
  H   -0.71802477130333     -0.83970616062613     -0.69396748906954
  H   0.31663468367115     -0.85492781463399      1.52818938852272
  C   -0.76586903473960      1.28661048634651     -0.96186257805958
  H   -0.78871779121806      1.22753976971494     -2.05330391853577
  H   -1.78669998796214      1.36669422007450     -0.57736314675822
  H   -0.19515653933890      2.16997479644027     -0.66628457579875
  C   0.41459645024388      1.22818285974726      1.72138194813406
  N   0.82918244235031      2.20591399672334      2.23505625646993
