18
Coordinates from ORCA-job run
  C   -0.19526435525291     -0.02185816971048     -0.41306935010064
  C   -0.22904029352975      0.10072036963278      1.11792654452031
  Cl  1.57198718199367     -0.04874887087200     -0.99540111936626
  F   -2.21587329084647     -1.52075885071996      2.42439219387101
  H   -1.28870283364420      0.23943041037879      1.36113741742222
  N   -0.77671140783220      1.17890903430466     -1.16986335212256
  O   -1.24204330803337      2.10917752215952     -0.51770777734805
  O   -0.80136698158772      1.09627633585191     -2.39356581492147
  C   0.60849194650313      1.23382363966548      1.68878126110086
  H   0.40098255061390      2.19558954834782      1.21954617883546
  H   0.38059382755555      1.31124202474848      2.75497041058106
  H   1.67349977295025      1.01164783260603      1.58023302442271
  N   0.13604333766592     -1.20572263789945      1.63549374740503
  H   -0.75487629998815     -1.51207551130247      2.15207271562984
  H   0.94684405340001     -1.13080522249621      2.23518913720762
  N   -0.94339751073743     -1.11886962767528     -0.81648047079104
  H   -0.86087625167237     -1.83544501055039     -0.09867263294597
  H   -0.72442013755788     -1.44000281646923     -1.74761211340013
