16
Coordinates from ORCA-job run
  C   -0.06304149670360     -0.10872252123988     -0.34206758660999
  C   -0.29596574039574     -0.22776811592267      1.15541274696653
  F   1.28431249503943      0.11728717450872     -0.55845362621586
  Br  -3.24283429127228      1.25602204160116      2.58669903927649
  H   -1.36349438188400     -0.39049903255183      1.33672657377396
  H   0.24911946314111     -1.14234334076453      1.43578879526671
  C   -0.50344084578015     -1.32836661249698     -1.13403386754252
  H   0.36580712923208     -1.74454203930306     -1.64482646322892
  H   -0.91531788512804     -2.08413253481345     -0.46340938597643
  H   -1.26955126872442     -1.07501848076752     -1.86337220684343
  N   -0.76172086062065      1.14126180582946     -0.85540760826725
  O   -0.10070465136848      2.17362723486077     -0.91130786357244
  O   -1.95091405681997      1.02902881494846     -1.12884051481965
  N   0.12796775711212      0.90322669601477      1.94508088822542
  H   -0.69591041508163      1.45589445724696      2.17069699424198
  H   0.81285904925428      1.46450445284963      1.45780408532546
