17
Coordinates from ORCA-job run
  C   -0.11148604575070     -0.08207260013977     -0.20521362647635
  C   -0.09743477799583      0.10850828365085      1.30724882789689
  Cl  1.63649237890430     -0.29653623293845     -0.76964436573789
  Br  -3.81767230680728      0.79970057275263      0.45448275291913
  H   -1.15511248579125      0.15793399306111      1.59264211029748
  H   0.33238836791507     -0.79230982705960      1.75858007970474
  C   -0.87679108058436     -1.37135637718280     -0.57779211233264
  H   -1.32249786952300     -1.81510277477029      0.31458622542168
  H   -1.70718853200014     -1.12074149603502     -1.23805336612728
  H   -0.23576807228981     -2.11184021334703     -1.05780111041261
  N   -0.59564231476381      1.12335128729605     -0.82750375688789
  H   -1.54211707458685      1.26994897353279     -0.45716818195193
  H   -0.69702876069950      0.95985762478067     -1.82404932434640
  C   0.62572639088838      1.35543557773386      1.79579885734877
  H   1.68595837614427      1.32670820901973      1.53538550996196
  H   0.18853581120462      2.24606492977542      1.34611235027757
  H   0.53880799573586      1.43660006986989      2.88351913044468
