14
Coordinates from ORCA-job run
  C   -0.74101006545807      0.01115115820882     -0.28148834794601
  C   -0.49915395513168      0.02030766428077      1.09116059984773
  Br  2.34255311329791      0.45481573535815     -0.86743397350494
  Cl  -2.98224450822200      0.12972697899349      2.61836015994815
  H   -1.72453369510426      0.00546281081046      1.63411703181345
  H   -0.12278177940164     -0.92941644042513      1.47860243222657
  C   -1.00681983729455     -1.23352733580916     -0.94833396404406
  N   -1.24602033806529     -2.25135007077822     -1.48821180035785
  N   0.04445518013187      1.26490561869487      1.55043730288194
  H   1.04616251987435      1.25345392288959      1.36029203406944
  H   -0.14786771521772      1.40059186310504      2.53360595769839
  N   -0.92575381788693      1.13880132320224     -0.97770546884342
  H   -0.79072422820345      1.08590073936338     -1.97465311352881
  H   -0.50319087331855      1.93520603210575     -0.51311885026057
