15
Coordinates from ORCA-job run
  C   -0.11659891600159      0.03122227013006     -0.35374555352383
  C   -0.14326480259056     -0.05706315751510      1.10775444335379
  F   1.21143194523767      0.17041112716526     -0.93617594847635
  H   -2.60292185590725      0.30078410257489      1.36613002996340
  H   -1.57049235431348      0.06270027097502      1.33136628483970
  H   0.19228273648554      0.90170659557578      1.52690820537654
  C   -0.62881088997648     -1.22254147462877     -0.96428163887851
  N   -1.03511463812010     -2.22135860153930     -1.43008625755706
  C   0.52979119459692     -1.25743826944191      1.73886143800133
  H   1.60790507732666     -1.33821275237574      1.53124366845500
  H   0.40721605292908     -1.22859538193110      2.82819939207837
  H   0.06448018067759     -2.18898912073072      1.39570080035730
  N   -0.87560983894116      1.14563441380612     -0.89992202035297
  H   -0.43153446019749      1.97675006314580     -0.51825906797258
  H   -1.78846943120534      1.08917991478971     -0.43468377566411
