12
Coordinates from ORCA-job run
  C   -0.63296260068281      0.30004636670647     -0.11591815479758
  C   0.03784689684067      0.22302261542819      1.04664893802376
  Cl  3.10110759055743     -1.47473402156319     -1.22578990186427
  Br  -3.46289718768625     -0.56265753746753      2.03637000222147
  H   -2.20612045526911     -0.25909523339344      1.36511504290205
  H   -0.62908759475979     -0.53250407786879     -0.81311720772130
  H   -1.12493896647959      1.21693743079621     -0.42586426051114
  H   0.06268711953604      1.10810244431640      1.68382150994944
  C   0.80775627162450     -0.98489144976126      1.49091022435539
  H   1.69103186087375     -1.11620948898145      0.85174184382551
  H   1.11679794540896     -0.90090642735061      2.53486245243181
  H   0.20957912003619     -1.89359062086098      1.38157951118485
