12
Coordinates from ORCA-job run
  C   -0.05871038598368      0.06335469738166     -0.38394277573893
  C   0.00103430380336      0.02722440958081      1.11845057823653
  F   1.21499257680149     -0.04220960463325     -0.97567274534250
  H   -2.50166546132854     -0.01228378544003      1.19012162543648
  H   -1.27878582022927     -0.01042960951111      1.32058982737014
  H   -0.62732608590315     -0.81099851744418     -0.71820171953338
  N   -0.70747657849654      1.23296591729235     -0.91802173228611
  H   -0.27810703117172      2.04914086080356     -0.49032569489876
  H   -1.66001220970223      1.18190943164600     -0.55039262301599
  C   0.58398086194602      1.19493140267650      1.70796303094878
  N   1.00070406017326      2.18438918708596      2.19961076564628
  H   0.44383177009098     -0.89425438943827      1.50745146317746
