14
Coordinates from ORCA-job run
  C   0.08044420120742      0.03776810666001      0.03646397269242
  H   1.72189430386620      1.32941124546433      0.01037359336870
  Br  -1.93271487126102      0.09794084477300     -0.03006982850108
  H   3.20141788674366     -0.39287871823098     -0.06619303320895
  C   0.62811751082239      1.43726306209383     -0.02680727808915
  H   0.26665032686882      2.00671231016802      0.83251804975812
  H   0.33771325551261      1.94123741413821     -0.94929202603751
  N   0.54373970497151     -0.75466620473797     -1.14514798182299
  O   1.54901226745851     -0.28585118805505     -1.72113950251069
  O   0.11768172008291     -1.91750100388362     -1.26307607642179
  C   0.57933013466510     -0.71425407701049      1.23125108342148
  H   1.68335172877157     -0.78157330247220      1.05057205685285
  H   0.39200733137949     -0.16238643529432      2.15421606387056
  H   0.14705449891086     -1.71308205361279      1.27829090662804
