17
Coordinates from ORCA-job run
  C   0.44185702672692     -0.03511170572650     -0.00210561395692
  H   1.72744448652991      1.67035835297609     -0.16753745549355
  Br  -1.87225269223816     -0.23779191042628     -0.17499149209904
  H   2.12425862000513     -0.40743559208125     -0.42491084126922
  C   0.65647815777539      1.49635317222566     -0.01989469494339
  C   1.00574203724546     -0.76058526045033     -1.14153156857712
  N   0.95510486872843     -1.41194590191221     -2.14641963504012
  C   0.59299598910370     -0.72408302969179      1.35313091170631
  H   1.57985646771674     -0.57720837509270      1.80150258203867
  H   -0.16984991369019     -0.33685268367098      2.02681452039578
  H   0.42421448102656     -1.79431990785695      1.21903800629776
  N   0.21914079232493      2.07573583084435      1.27074783367217
  H   0.37622642489772      3.07741064739903      1.20796998221377
  H   0.83295486520891      1.73583624266595      2.00612214332064
  N   0.00046073220957      2.10722557768116     -1.15194307783883
  H   0.16228664936290      3.10831326063528     -1.13849857163487
  H   -0.99416899293388      1.92284128248147     -1.08606302879203
