20
Coordinates from ORCA-job run
  C   -0.23604417968549      0.05180006723707     -0.27119256131643
  C   -0.02071947340959      0.04589305306006      1.14706185553284
  Br  1.82308917719890     -0.06765533534471     -1.34060230067351
  F   -2.55004107839958     -0.26162820586953      1.39745026554113
  H   -1.35727082637975     -0.02271249243373      1.37610135336854
  N   -0.89571240183009     -1.09639538574313     -0.85158692277952
  H   -1.76623727156889     -1.15106790034618     -0.31501840845024
  H   -0.35181669427592     -1.92343187003710     -0.63692542997310
  C   -0.79033296662181      1.31830655262357     -0.87913615588314
  H   -0.88670667531076      1.18043353502057     -1.95481985214195
  H   -1.78269993329677      1.46764315760966     -0.43698813416706
  H   -0.16326559132312      2.18609338074097     -0.68111926599716
  C   0.52182871854360     -1.24333299534293      1.73144741972295
  H   1.50992340986876     -1.48207508637830      1.31159326769996
  H   0.62318541024503     -1.15120833910271      2.81767584676365
  H   -0.14943201166996     -2.08598533953696      1.54818207747766
  C   0.62049453961631      1.28093801977524      1.74244937711051
  H   0.66846002072220      1.19493761852072      2.83340469399700
  H   1.64570050786136      1.41105906670040      1.36474788731379
  H   0.05978731971555      2.19137849884702      1.51798498685407
