19
Coordinates from ORCA-job run
  C   -0.18137217954347     -0.04761300856436     -0.40281205145228
  C   -0.20338078921805     -0.14717171670071      1.13247924825897
  F   1.11386076179869      0.38011273293894     -0.77807481304245
  H   -2.19685212595783      1.90959108978106      2.20833692276468
  H   -1.21927166018797     -0.41047774594307      1.44776360669598
  C   -1.13811761293540      1.03876469712710     -0.84631750235237
  H   -1.06645540143039      1.14851898158323     -1.93304585543418
  H   -2.16050065173849      0.78686467324025     -0.56088120501428
  H   -0.90614831557235      1.98253135567784     -0.35665210725911
  N   0.20806151998122      0.99077923604221      1.84960064600460
  H   -0.68792089936249      1.51013321025036      2.10038704504737
  H   0.83845961604717      1.55950917397249      1.29967463565360
  N   0.64557029894486     -1.35580892589695      1.52486404871628
  O   0.05798470065795     -2.39685403322012      1.83893304349945
  O   1.86650168494519     -1.23418740031432      1.48902311197690
  C   -0.45320271874224     -1.37567563040649     -1.11836559369183
  H   -1.35242832456751     -1.31075166119781     -1.73448215335697
  H   0.39344991420020     -1.59673253443882     -1.77092665554623
  H   -0.57694781731909     -2.20855249393083     -0.42629437146812
