12
Coordinates from ORCA-job run
  C   0.58211052928120     -0.03805482703648      0.03183615058216
  H   1.05458213427257      1.86876959673274     -0.74220270760706
  F   -0.76537826210426     -0.46408474119912     -0.84574565616966
  H   2.23134180850954      0.26347930870716      0.87937255835317
  C   0.38457847885248      1.47163886355139      0.03468740461399
  H   1.27922162770558     -0.48564814200627     -0.65389790913763
  H   -0.64801179636586      1.64911159886673     -0.27202902683443
  C   0.30559496502446     -0.79309951825676      1.23383808596699
  N   -0.02904231161399     -1.45406857029523      2.14972834898778
  N   0.57522590901305      2.08355037267100      1.35039129728935
  H   0.59921593777608      3.09211993195677      1.23802682622448
  H   1.49801097964915      1.75990612630807      1.64112462773086
