13
Coordinates from ORCA-job run
  C   -0.46434304410890      0.13975987849133     -0.15904733545697
  C   0.12726661450646      0.16618794225011      1.07934055659974
  F   0.65511765588199     -1.45316412358451     -1.06610780998631
  Br  -2.40217766119721      0.46204798656225      2.94313077586694
  H   -1.28393415629462      0.41712860434361      1.82956469476750
  H   -1.14464229337544     -0.61626769309332     -0.50565970780496
  H   0.60899308773073      1.08368720117134      1.41657971204012
  N   0.57822603765025     -1.07423791046986      1.56116373358522
  H   0.59103517227648     -1.68966470976818      0.73586308919222
  H   0.10173955221363     -1.42917647666994      2.37867340794592
  N   -0.58286232155694      1.37561497232461     -0.89902786955766
  O   0.19781562813268      2.30377745838914     -0.65671153453556
  O   -1.48268427185911      1.43030687005343     -1.74777171265620
