14
Coordinates from ORCA-job run
  C   0.52272962305895     -0.07347353594829     -0.05024919986639
  H   1.51640078559924      1.73519235261110     -0.30994664440659
  Br  -1.77036936891426     -0.44084001432219      0.16129156895692
  F   2.56437101243210      0.08836203652800      0.19464168091383
  C   0.50124628775155      1.42159762128609     -0.06732496439345
  H   0.72014440328536     -0.56751285640019      0.87912208349249
  H   -0.23810853612559      1.83601131262228     -0.74915511546968
  C   0.73994345933225     -0.76338780746205     -1.37016138715815
  H   0.03209976417640     -0.40942968147558     -2.12225884946215
  H   1.76688610550552     -0.55879104130519     -1.66388607647705
  H   0.59999868780851     -1.83833901528305     -1.25477203508386
  N   0.20152077043432      2.03803632583391      1.25600774024112
  O   -0.19190913497611      3.20621361831402      1.22587011049328
  O   0.41025614063177      1.39883068500115      2.27947108821972
