17
Coordinates from ORCA-job run
  C   -0.15626639509150     -0.09007952424643     -0.33156836473306
  C   -0.20519732935568     -0.00169292946661      1.12843245324457
  Cl  1.61056731825519     -0.12443418394728     -1.09094997381728
  H   -2.73171572159950     -0.18314800660220      1.63481094393469
  H   -1.41211983601976     -0.04671725527105      1.38524373160187
  H   0.14791385901460     -0.95770742275166      1.52864257941817
  N   -0.75756694998411      1.16230048616714     -0.94594067872825
  O   -0.19683631743738      2.23332509754780     -0.72760200484297
  O   -1.80197273054871      1.03582699352492     -1.58470691790668
  C   0.42884586731375      1.17270790434697      1.84531538677214
  H   -0.14867852252031      2.08721418182255      1.69867233740508
  H   0.43944772363093      0.96141679621382      2.91930897700642
  H   1.45536526612412      1.36583480884430      1.51694716955575
  C   -0.87408319417451     -1.30912165498799     -0.84142801064622
  H   -0.34123858364072     -2.19324648669914     -0.48825663604155
  H   -1.88224419332662     -1.29555865434300     -0.40758704691167
  H   -0.92649026063978     -1.32859015015213     -1.92935394531100
