12
Coordinates from ORCA-job run
  C   -0.20280820293975      0.02481276941037     -0.34025787502922
  C   -0.23729513855673     -0.04830946962921      1.10315257349118
  Br  1.80743211103112      0.03435908165714     -1.22847811024771
  H   -2.73959883204721      0.12800188025730      1.63707716232961
  H   -1.46985181384164     -0.01384148887696      1.37404975434344
  H   -0.54149479201146     -0.89460420748481     -0.81901470778641
  H   0.16259660346284      0.83892806500540      1.60099800455965
  H   0.17905302521552     -0.96302295225024      1.52951108798419
  C   -0.89136722131627      1.23778266770834     -0.90075967935155
  H   -0.92739642819159      1.23429491617535     -1.99181035632335
  H   -1.91186329375032      1.22455419591094     -0.48446932745456
  H   -0.39845601705450      2.15393454211638     -0.56785852651527
