15
Coordinates from ORCA-job run
  C   -0.45595001480781     -0.02346435541468     -0.23311476181148
  C   -0.18637230289072      0.01785922958339      1.11227865077827
  Br  1.91765796964159     -0.07187347686906     -1.57862826851854
  Cl  -2.92833012282838      0.30721984917122      2.20755354613150
  H   -1.55696418000015      0.18416909231350      1.49338579216003
  H   -0.57472772804220      0.92606877892130     -0.74817735564594
  H   -0.01472560447141     -0.94364514105681      1.59888430766306
  C   0.50806963695761      1.20336468199056      1.72557658737094
  H   0.16064561466248      2.13308546488087      1.26885048086760
  H   0.32404725430122      1.26226391754049      2.80164361105110
  H   1.58412797559548      1.12319863979784      1.54263140581000
  C   -1.06374351443157     -1.21980501246280     -0.88865459780761
  H   -2.14189198213953     -1.23073786481321     -0.67603458957792
  H   -0.90926970598514     -1.18698424808041     -1.96519759277681
  H   -0.62336329556148     -2.14016955550220     -0.50270721569421
