19
Coordinates from ORCA-job run
  C   -0.28440444740570      0.04108590871800     -0.26443170292672
  C   -0.27523681033669      0.11798779701364      1.16798699912955
  Cl  1.71708486057825      0.00078951053009     -0.95749386580131
  F   -2.78628455072115     -0.26267355713083      1.41142377642180
  H   -1.65872866311840      0.00698418349691      1.32577171541812
  C   -0.80803468487898     -1.25719309652265     -0.83366030539532
  H   -0.22659111886955     -2.11004127781966     -0.48460781266281
  H   -1.83899301231404     -1.35833132656103     -0.48108661972389
  H   -0.77909493769402     -1.24235590192982     -1.92469831171321
  C   -0.83361921138030      1.25723580158263     -0.97032697809224
  H   -0.72213112785539      1.16547369975802     -2.05279214913591
  H   -1.89696564596536      1.31593624439958     -0.71251952579670
  H   -0.34087631578737      2.15948795024738     -0.61766510455599
  N   0.22896870871310      1.38430790278943      1.66537694862870
  H   1.24458128415079      1.37476564562422      1.55321647942993
  H   0.05084576228340      1.39431595044820      2.66317387782083
  N   0.25294951175914     -1.03663871619078      1.88767807763980
  H   -0.45368460401850     -1.76174909867698      1.91994676150188
  H   1.06685500286079     -1.40439761977634      1.39502773981348
