14
Coordinates from ORCA-job run
  C   -0.29799033064775      0.03766744372173     -0.23328710589207
  C   -0.16894009782514     -0.01282651518982      1.19059408714079
  Cl  1.56586979213995      0.08547015144387     -1.19716848317453
  F   -2.70872545667564     -0.44980923447682      1.42204994468379
  H   -1.64800609182530     -0.20300293161922      1.44112503496203
  H   0.30474310482137     -0.92536977537882      1.56137489266593
  N   -0.87694341567907     -1.13499774545081     -0.87544160350663
  H   -1.75652881504788     -1.26495091939156     -0.37540282162002
  H   -0.28869120694459     -1.92661075645482     -0.63562937243689
  C   -0.93295779269874      1.29519141746052     -0.78336594213794
  H   -0.92073854437138      1.27492204599113     -1.87230377853261
  H   -1.96640793187633      1.32087485878590     -0.42381379888354
  H   -0.40685648460945      2.18235599637477     -0.42681793920895
  H   0.25228327123993      0.88529596418393      1.64652688594065
