18
Coordinates from ORCA-job run
  C   -0.03136335411954     -0.12946594641708     -0.02361746213724
  H   1.55964858448027      1.21992296140901      0.38679563727230
  F   -1.41627913998467     -0.11487761897618     -0.13105714068402
  F   2.75023406279146      0.36235415176201     -1.38325969260626
  C   0.50727158862390      1.29270138253364      0.12776207310219
  N   0.58746753920728     -0.76803466651073     -1.05924152094940
  H   0.44510635471450     -1.76840064060453     -1.04113913142447
  H   1.62455016741812     -0.37504633671395     -1.25255990136580
  N   0.17061950812495     -0.90024260619993      1.33107128120002
  O   1.19027382116538     -0.65117742127354      1.96965540283847
  O   -0.62959974047880     -1.79656676720388      1.59610821735107
  N   -0.18671963127464      1.99638119961535      1.25395788316262
  O   -1.34533442039989      2.37223575434708      1.07242227875221
  O   0.45497563227857      2.19248292350096      2.28860866744644
  C   0.33624309766182      2.08035618870904     -1.15723422187421
  H   1.09037024267523      1.68867210719081     -1.83758440904735
  H   -0.67162081809989      1.97092709623423     -1.55601055004618
  H   0.53816650521595      3.13879823859762     -0.97005741099043
