13
Coordinates from ORCA-job run
  C   -0.06004158372888     -0.05018459736343     -0.43470642823481
  C   -0.10029324925527      0.04353246596390      1.06039147501877
  F   1.26276969849293     -0.10117675661912     -0.95279173593646
  H   -2.63724775335248      0.05568554084667      1.34818444154209
  H   -1.34262213190641      0.10341574984909      1.29645360222198
  H   -0.50065265307687      0.85752351373334     -0.86178908743215
  H   0.24601274718439     -0.88144238680253      1.53264109588897
  C   -0.80637842471921     -1.27048407243997     -0.91748132581565
  H   -0.31253401091975     -2.17368744697149     -0.54792158219863
  H   -1.82352558300274     -1.22708306509190     -0.51522692058111
  H   -0.83110781394926     -1.30750628777441     -2.00983490696256
  C   0.59427148773473      1.18279061891786      1.59715972971592
  N   1.10769927049881      2.13974672375200      2.05671164277365
