12
Coordinates from ORCA-job run
  C   -0.10534409194654     -0.03373161002255     -0.33270125765965
  C   -0.04660113127431     -0.16408926305311      1.16134449758180
  Cl  1.44983940798144      0.51548007232259     -1.10587217393143
  H   -2.36952815521360      0.62750882263246      1.55140910887092
  H   -1.23049020343907     -0.14436868590423      1.40971080088358
  H   -0.35831794300648     -0.97845465837222     -0.81537464365136
  H   -0.85227731329255      0.72676534884890     -0.56980630209966
  N   0.37031916831396      1.01228088034050      1.89538855262062
  H   -0.49446643513572      1.55312313350335      2.00716661742455
  H   1.03588118620045      1.55283421071522      1.35564936080032
  C   0.63333050568225     -1.36897825360856      1.59097398205477
  N   1.15449500513017     -2.37481999740234      1.91539145710553
