17
Coordinates from ORCA-job run
  C   0.44581993039996     -0.04470525662519      0.04555644607654
  H   1.65829455600331      1.61471549174892     -0.25887177408906
  Br  -1.84859681710730     -0.15851202670173     -0.25172882063408
  F   2.51082110343034     -0.20725419991324      0.01605551616305
  C   0.60953894898707      1.45807350074729     -0.01822043720094
  H   0.00186364354760      1.84921786998614     -0.83323170047340
  N   0.73379299463342     -0.77119453345729     -1.23324994750848
  O   0.86443266572926     -0.08348330128380     -2.23954274894640
  O   0.76125825139486     -1.99458971047412     -1.21004496848413
  C   0.50937934108682     -0.83009300431663      1.32775236413297
  H   1.50181849285121     -0.69324702057071      1.74663560419436
  H   -0.26968364815027     -0.50301228488288      2.01573956904801
  H   0.35690878933499     -1.88277797132784      1.09824192259572
  C   0.24970845635882      2.13920998526987      1.29463454672404
  H   -0.78871131623349      1.94578516663053      1.57232886026779
  H   0.90126260746312      1.79651475289935      2.10160742629198
  H   0.38026200027029      3.22156254227128      1.19741814184203
