11
Coordinates from ORCA-job run
  C   -0.05158432084814      0.02182875286140     -0.40217582924501
  C   -0.11750559083656     -0.31017848665764      1.07270181623305
  Cl  1.59917752700896      0.72229229058045     -0.77023894753893
  Br  -3.42253082359763      1.36480671869020      1.73074532207525
  H   -1.11459032506913     -0.68765615637406      1.30867811158947
  H   -0.05084250280086     -0.89450595795264     -0.99928816056102
  H   0.02027610516693      0.59245712653232      1.66787772355106
  H   0.63795310176866     -1.05306864490140      1.34131394124806
  N   -1.08504650022661      0.92252677525159     -0.85441648374652
  H   -0.70473015085795      1.83806830740492     -1.04537325445313
  H   -1.79400651970764      1.03662927456486     -0.12454423915230
