14
Coordinates from ORCA-job run
  C   -0.57733279771978      0.18349639928087     -0.33700997193884
  C   -0.40312479937493      0.15154747792815      1.23421953698961
  Cl  0.00407071443224     -1.34547863756993     -1.05928968210017
  Cl  -2.60057371161703     -2.11833562384140      1.85924797796987
  H   -1.38932914582912     -0.11772497713858      1.63390305911766
  H   -1.64842316153070      0.20685457431536     -0.53911246867189
  N   0.04564030808809      1.27378508965476     -1.05830595120423
  H   1.02243388229426      1.34509910464385     -0.79330438989225
  H   -0.40020087070234      2.14050880477967     -0.77900401715602
  C   -0.07100422263897      1.51788867460949      1.66892137670938
  N   0.19739961019443      2.61858231716226      1.98139554575040
  N   0.51495807911604     -0.79071287736654      1.84081752678396
  H   1.30033588997369     -0.97835172447650      1.23106359720812
  H   -0.02114977468589     -1.64826860198148      1.95543786043441
