11
Coordinates from ORCA-job run
  C   0.47957864304150      0.01402316212233     -0.01478306254895
  H   1.85808789698690      1.59521297120996     -0.10730195755478
  Cl  -1.61336332731286      0.08153513997334     -0.11603181940383
  F   2.41696615174487     -0.40391771623626      0.20306399465734
  C   0.78338148973107      1.48064227215997     -0.01923088402697
  H   0.50879928006857     -0.60804231323836      0.85503921802816
  H   0.42698686639472      1.90830711504248      0.91964177579074
  H   0.26547009821360      1.97063039071994     -0.84150183961751
  N   0.70580046328019     -0.73930306347139     -1.26501388362311
  O   0.95917121196515     -0.09138606793626     -2.27731852536201
  O   0.58122122588628     -1.95631189034575     -1.21662301633908
