14
Coordinates from ORCA-job run
  C   -0.14067549787229      0.02382017052526     -0.35883349794235
  C   -0.13120392059261      0.02922424004683      1.11400719979834
  F   1.18646207662987     -0.04805041657687     -0.97010206915350
  H   -2.64937491546956     -0.17056504488362      1.32378943358268
  H   -1.67353048859986     -0.05288104165337      1.35300868126904
  H   0.36441001159727      0.91444888065133      1.53457628760688
  H   0.31635338239007     -0.89112594947311      1.51655675944885
  C   -0.76589322718611      1.28121765696766     -0.93105576977181
  H   -0.73346636667333      1.24186412865110     -2.02257269043058
  H   -1.80503024607200      1.35252692360400     -0.59396328365895
  H   -0.21794917479758      2.15922953124033     -0.58018982724338
  N   -0.83156355397163     -1.13743347210970     -0.92568672433964
  H   -1.75509727063527     -1.12143794183038     -0.48878803395821
  H   -0.36585080874698     -1.94879766515947     -0.52614646520735
