20
Coordinates from ORCA-job run
  C   -0.03433785214078     -0.07063764787400     -0.35321089804841
  C   -0.11574355136944     -0.00193278902398      1.10844038545812
  F   1.27322919399450      0.07510347646780     -0.90512247573704
  H   -2.39979455620722     -0.13880203484731      2.02697976271146
  H   -1.39503445996215     -0.00823661403618      1.48275061787933
  C   -0.62725689178343     -1.31539877027597     -0.97221454620216
  H   0.04193753005765     -2.15278145471887     -0.77249756613851
  H   -1.60806614273810     -1.51333230914769     -0.53810891121141
  H   -0.72011609368675     -1.19368817926350     -2.05354522650117
  N   -0.78180498403152      1.13534712614582     -0.93025187088669
  O   -0.15788104939059      2.18378180802772     -1.09519486200917
  O   -1.98508777811251      0.99487926084886     -1.14877536454215
  C   0.49372155064340      1.22040348828466      1.75781343339525
  H   0.23283530923219      2.14675254886048      1.24128074774749
  H   0.09468755798211      1.29330148802559      2.77940440482218
  H   1.59115343604026      1.17672433751474      1.82377386015359
  C   0.31425918009095     -1.27234582173149      1.81055538847257
  H   0.08644529728990     -1.15457467089404      2.87751941099586
  H   1.38618776764820     -1.49990115432485      1.70832882226801
  H   -0.26545346355670     -2.14005208803779      1.48092488737284
