13
Coordinates from ORCA-job run
  C   -0.44867748940401     -0.15643913346793      0.20008902730769
  C   -0.77628013250189     -0.37770088717885      1.58899607314126
  Cl  0.29380050394889      0.30759666362001     -3.41740758079265
  H   -2.57275156243358      1.31979864305440      1.44961779703852
  H   -1.83637592690406      0.33794949049833      1.65333375057979
  H   -0.14991500329391      0.18766450455466      2.27614382021583
  H   -0.87945579254963     -1.42516433296631      1.87389952967862
  N   -0.54907429060257      1.10422709618757     -0.22772908672995
  H   -0.47015729177313      1.24517657912018     -1.23282364155878
  H   -1.29097423160811      1.61374759409930      0.29255793294155
  N   -0.23403273063888     -1.14668903312484     -0.67790874003127
  H   -0.02636628519471     -0.88847540914823     -1.65137853283092
  H   0.12041023295561     -2.01576177524828     -0.32125034895970
