12
Coordinates from ORCA-job run
  C   0.44440841935875     -0.07417350240538      0.06418765175061
  H   1.59120186923100      1.70294993280722      0.37598250512057
  Br  -1.77017732469719     -0.30358233396714      0.10622145398952
  H   2.50133617052195     -0.18462498835448     -0.51941801132102
  C   0.58075411614385      1.44121329368907      0.07322353730087
  H   0.59293880256910     -0.59162522670042     -0.86852437863316
  H   -0.12912491404073      1.84582398475302      0.80019891492040
  N   0.79072239148876     -0.67508863930620      1.33209675145064
  H   1.77773158152671     -0.88540934962466      1.22985610198438
  H   0.27412138304044     -1.54297975528718      1.41849936908889
  C   0.31959576997147      2.04258408040739     -1.23256839265969
  N   0.10807173488590      2.56331250398878     -2.26296550299198
