17
Coordinates from ORCA-job run
  C   -0.04644090114019     -0.00441681319842     -0.41823477823648
  C   -0.18049925427781     -0.01561797096933      1.06788423483076
  F   1.30493108961206     -0.04438765038486     -0.86742939374207
  H   -2.56561191494806      0.21396265618524      2.12930994370813
  H   -1.32476018166942      0.02600930642377      1.35286801209530
  C   -0.61966467332359      1.22494718936071     -1.00386638988251
  N   -1.04919052117214      2.20757145747772     -1.48317642476885
  C   0.40877226567827      1.25089494443477      1.69385019954974
  H   -0.41712789810559      1.86307886328571      2.07607439067804
  H   1.05739291360656      0.99911116246825      2.53794194588250
  H   1.00678247180268      1.84482185006673      0.99581763064327
  C   0.34140934884065     -1.29744696254988      1.69391242716193
  H   1.43535428972023     -1.36325697488657      1.67848146727285
  H   -0.00416782271412     -1.31150839267059      2.73290113215834
  H   -0.07173277970948     -2.18782306965660      1.21006783387626
  C   -0.70009977386197     -1.17163277241945     -1.04476584634662
  N   -1.19873665833809     -2.10354682296718     -1.55731638488059
