17
Coordinates from ORCA-job run
  C   -0.16720930271140      0.03375622057662     -0.34611616609275
  C   -0.06894319693123     -0.06528533281412      1.19481010714834
  Cl  1.46543835244807     -0.20052569987982     -1.14435952684236
  F   -2.69309504499259      0.47817933181991      0.67169302143728
  H   -1.13798258908517      0.00755533397375      1.46464151240491
  C   -0.95931831436025     -1.13471891400727     -0.77453534067746
  N   -1.47469863740470     -2.12565582008071     -1.13699476378856
  N   -0.78654739007463      1.22269592652475     -0.83126927644124
  H   -0.24684578873764      2.01921471963197     -0.50578386835722
  H   -1.71982681600671      1.17129460857843     -0.31590233609764
  C   0.66466389775310     -1.26881086828578      1.74663657344958
  H   1.72073512868923     -1.24283623251594      1.47401441408489
  H   0.57230430813291     -1.29002269192774      2.83595166469298
  H   0.21578642256259     -2.18104818124206      1.34923683995718
  N   0.55917888124322      1.17070108362579      1.75521051139689
  O   1.70178709305086      1.46482410406021      1.39662726451326
  O   -0.09373700357564      1.80998241196200      2.58028936921194
