17
Coordinates from ORCA-job run
  C   -0.14891976159495      0.04511406939129     -0.40203982055506
  C   -0.14989837752187     -0.05220932288228      1.05867565922756
  Cl  1.59028508302204      0.08213934504793     -1.21786818659321
  H   -2.64732517032072      0.14400254025028      1.69476373818971
  H   -1.34394929874879     -0.00125290617345      1.36066047790011
  H   0.22475633700266      0.89816281232121      1.45280960288497
  C   -0.87966397900298      1.26986762378930     -0.88073681592129
  H   -0.97044274902644      1.29385342571257     -1.96617132730752
  H   -1.87145977859885      1.26116866151336     -0.41164428400283
  H   -0.32965089196756      2.14992575989785     -0.54412644583886
  C   0.49962401117948     -1.23530363693929      1.74601743135334
  H   1.52838229402077     -1.40765131810812      1.41264087101042
  H   0.50810003875965     -1.04838887079137      2.82459900411474
  H   -0.06631897796078     -2.15345061554864      1.57970681090227
  N   -0.77582567237070     -1.20138711193156     -1.00227155586107
  O   -1.85550036303656     -1.07032599843413     -1.57874745082106
  O   -0.19901274383439     -2.27272445711494     -0.83300770868221
