12
Coordinates from ORCA-job run
  C   0.78014545082739     -0.05139521422157     -0.05145843823325
  H   1.80520346637455      1.82847531496463     -0.41878450264072
  F   -1.21413648459705      0.20663263666608     -0.09843890020888
  Cl  2.77534935866519     -0.43754132610040      0.33621415386351
  C   0.81872794663394      1.46015639262149     -0.13335599762713
  H   0.41908089988129     -0.47919031261199      0.86393969595470
  H   0.50941875390327      1.86633065528745      0.82389345450188
  C   0.57810199069904     -0.86168207325375     -1.22868576463752
  N   0.49868161361978     -1.59654294810797     -2.14249137083174
  N   -0.10255190884161      2.05582208249216     -1.14374853220297
  O   -0.77872139091116      3.01496295794667     -0.78405152692395
  O   -0.01019969625464      1.64718183431724     -2.29463227101392
