13
Coordinates from ORCA-job run
  C   -0.11179340262895     -0.05055375103257     -0.37162547365822
  C   -0.22016934002255      0.05542813863269      1.12174477286707
  Cl  1.62575145213090     -0.14129108423068     -0.97558906476178
  H   -2.81696960299301      0.01601097826442      1.28410979981259
  H   -1.43210237922943      0.09155283826922      1.30133906920365
  H   -0.49731379054996      0.86372246321768     -0.82750645353588
  H   0.13701440884474     -0.85381993418538      1.61502647172456
  C   -0.87832906062391     -1.25267915227999     -0.87378589517139
  H   -0.43063028322317     -2.17412539651301     -0.49222575228974
  H   -1.89852130245305     -1.16059525621313     -0.48087673353568
  H   -0.89053598125574     -1.29483425028633     -1.96527051452781
  C   0.40870111913951      1.22176176111988      1.69092518334915
  N   0.87542816286463      2.18942264523720      2.17367459052348
