16
Coordinates from ORCA-job run
  C   -0.48664422178021      0.04822034560932     -0.20507264145938
  C   -0.09232783511310     -0.08833326594567      1.11781791980143
  Cl  1.32240267552684      0.61757839758165     -1.59726171794383
  Cl  -2.59083276453987      0.00986796273673      2.65210084890617
  H   -1.43709493440097     -0.11663483240321      1.68415905302663
  H   -0.98986180738517      0.95444196570653     -0.51050877050538
  N   0.44350323566257      1.12102450469805      1.68583848174140
  H   -0.19288444560244      1.53439260977654      2.35790138791077
  H   0.66439211637835      1.78381546556970      0.95173451867214
  C   0.50535288968192     -1.33822359505221      1.70725476387803
  H   1.51437195951491     -1.47210148536488      1.30395086548001
  H   0.57484659742472     -1.19837761197314      2.78815056641124
  H   -0.07938821443281     -2.23070420821789      1.49301797606492
  N   -0.99923355754429     -1.08438277557050     -0.96722120611560
  O   -0.47039067227894     -2.18911408424326     -0.84304940856176
  O   -1.96645102111148     -0.84582939290777     -1.69722263730675
