16
Coordinates from ORCA-job run
  C   1.09525732786590     -0.10078558901004      0.04290707765316
  H   1.74583090438188      1.79483224535666     -0.74022425582046
  F   -1.46341713783326      0.30666201539890     -0.06804571757674
  Br  3.10033431822053     -0.23092279134016      0.34554057705453
  C   0.88056071439298      1.39658763043391     -0.20749548030082
  H   0.78877582994434      1.87352866916459      0.76463972439008
  N   0.89753618796094     -0.92736458812519     -1.21292954238574
  O   1.40956035482982     -0.49664134354836     -2.23968261534638
  O   0.29562108513468     -1.98802033784640     -1.10322470319373
  C   0.46411987876895     -0.72863397630460      1.25714626707799
  H   0.84545678628409     -1.73920804650869      1.40195406174762
  H   0.72017345575265     -0.11703815279683      2.12580568100295
  H   -0.61387569942440     -0.67934971095109      1.05119042461792
  N   -0.27277892264520      1.93179775853223     -1.01270547342079
  O   -0.79898632638416      2.93362748372901     -0.53345025429741
  O   -0.41615875724974      1.54230873381599     -2.16035577120216
