17
Coordinates from ORCA-job run
  C   0.03797252938544      0.03492757648025     -0.38706159906841
  C   -0.12282402686510     -0.02629352561944      1.03932654042603
  F   1.36709142631027     -0.17637753854390     -0.94061223534333
  F   -2.52009762826188      0.04999927676621      2.05737309188866
  H   -1.65468497434910      0.00365257756710      1.51466264253880
  H   -0.30022066778803      0.97307989308434     -0.82758292635446
  C   0.30093452432643      1.26748400897135      1.71527447288015
  H   -0.11462631056439      2.14100289752933      1.19784034539093
  H   -0.08896586593651      1.29870893325313      2.73876151948658
  H   1.39647746594101      1.40274130718837      1.77430610159960
  C   0.46363557628023     -1.26813987098651      1.71194543021263
  H   1.07985206367730     -1.86565810060044      1.03421308972897
  H   1.10437746843397     -0.97742227410816      2.55566897224793
  H   -0.31375438609152     -1.92681085405838      2.11775744636470
  N   -0.76245201395196     -1.03217771687841     -1.10941479533173
  O   -1.76310788234197     -0.65757191549940     -1.72531230435536
  O   -0.39362729820414     -2.20225467454537     -1.02869579231173
