17
Coordinates from ORCA-job run
  C   0.56283890744146     -0.03990293732914     -0.02632731484842
  H   1.64800720123217      1.81439762808312     -0.01708500545818
  F   -1.17819403110479     -0.01808845518841     -0.06380715432619
  H   2.57600180441939     -0.12873444512866      0.06469784165219
  C   0.61403282537223      1.48718021832351     -0.02275876985904
  H   0.13066546111567      1.80114991833611      0.91788453688453
  C   0.74281080100970     -0.79076090523295     -1.33525104011699
  H   -0.24118778395451     -1.02715272993672     -1.75502354995255
  H   1.29803029538449     -0.18193112482909     -2.04450724098758
  H   1.30669114149327     -1.70680377201244     -1.16737023656905
  C   0.65667354195063     -0.76445062871589      1.30802207547035
  H   1.23058161090233     -1.68303434657385      1.20027898851572
  H   1.18242028079211     -0.15188140496828      2.03966398519780
  H   -0.35419495209943     -0.98503632088949      1.67135063657521
  N   -0.06149000490093      2.03762340588698     -1.20682155103362
  H   -0.10060431149440      3.04668498903390     -1.11362210147406
  H   -1.00610278755937      1.67530091114132     -1.15709409967010
