14
Coordinates from ORCA-job run
  C   0.14881996734667     -0.08809599424416     -0.50418726327679
  C   -0.35910890038542     -0.06760050761113      0.94640025525563
  Cl  1.90598357946350     -0.45521698686430     -0.56371436745499
  H   -2.16675005507627     -0.77956446558268      2.99677948653421
  H   -1.41603869088398      0.25633387618815      0.94163605482754
  H   0.03016082666707      0.89343745826670     -0.96649569143553
  C   -0.57579805045636     -1.08507819564007     -1.28196359345571
  N   -1.16424927419216     -1.83540937018056     -1.96719492240731
  N   -0.26092605426743     -1.22997241274845      1.66797958440104
  H   -1.14706357932547     -1.12792606700881      2.43692845098522
  H   0.65639912858882     -1.34579761443302      2.08304258313541
  N   0.36377671255019      1.18854667822913      1.55098484945826
  O   0.18162332006304      2.26697137606772      0.98120784955902
  O   1.06883106990780      1.02823222556149      2.53972672387397
