16
Coordinates from ORCA-job run
  C   -0.16394821801304      0.00278159318208     -0.27381764214287
  C   -0.16422160944927     -0.06677733275090      1.18312554491601
  F   1.21220103020533      0.09439092785049     -0.88314407317298
  H   -2.48317767067144      0.43173327526545      1.89732276151877
  H   -1.63437351177620      0.08522122501413      1.57778615793934
  C   -0.91133566365919      1.18185649118857     -0.85280182663022
  H   -0.95951450156036      1.12418832331258     -1.94431807430638
  H   -1.92297037697218      1.21200406592540     -0.43366037719884
  H   -0.40609664073549      2.11050386361185     -0.58085477589551
  N   0.29970030924172      1.12484142203870      1.85796781913126
  H   -0.50888466178716      1.69188855148861      2.12474571238187
  H   0.90655468482611      1.68950087075428      1.27320007740557
  N   0.41984580798465     -1.28615378324627      1.74183743920357
  H   1.26547644311871     -1.53756749338633      1.23015391630817
  H   -0.23914375569301     -2.04835290560342      1.61625473248817
  H   -0.52680166505919     -0.94061909464520     -0.70214739194592
