16
Coordinates from ORCA-job run
  C   0.33757656462638     -0.06894826669308     -0.07687427812634
  H   1.58916585316049      1.59869204644154     -0.56156366649464
  F   -1.25216754544165     -0.05848082444879     -0.57808337021872
  H   2.01930362884247     -0.15851641389549      0.71787224571554
  C   0.60126874218214      1.43414175140661     -0.14515368608208
  H   0.07159750105209     -0.46578054851013      0.89106160005580
  N   0.81273898927395     -0.89699728800037     -1.15616669541607
  H   0.02734248311390     -1.46189650499153     -1.45074891032946
  H   1.57084678711985     -1.46166992028151     -0.81105747180875
  C   0.40552055061374      2.09397861882527      1.20101322718598
  H   -0.61967736995265      1.94047667184540      1.53861036213208
  H   1.10738797554842      1.62526721547273      1.89051167889788
  H   0.59307032058837      3.16944775147929      1.15412393313458
  N   -0.31384923982671      2.09832621013354     -1.16276339459577
  O   -1.28694972355798      2.74598773939803     -0.77847360391383
  O   0.00767448265718      1.97833176181849     -2.34341797013623
