14
Coordinates from ORCA-job run
  C   0.38488829427735     -0.07166383080174      0.70122125517947
  H   1.72852825122422      1.59630538125941      0.84234363741295
  Br  -1.99916887888424     -0.07530699702793     -1.82906657369107
  H   2.27772636000798      0.51788331016760     -1.90213370762927
  C   0.76981725423519      1.34269919195982      0.38062275672098
  H   -0.26118269766371     -0.58700504413695     -0.01625174067012
  C   0.86547590953088     -0.69863914200564      1.84336027803832
  N   1.26933737547902     -1.24041153014765      2.81957266575686
  N   -0.21388596849394      2.23388403988368      1.22464486750496
  O   -0.84608088662211      3.10809821799186      0.64832793409970
  O   -0.20904876639499      2.02679270592781      2.43226860085376
  N   0.74764770256444      1.67466790448956     -0.99817440874767
  H   0.67454907961282      2.67946851700667     -1.12026318589086
  H   -0.05442302887289      1.22300727543352     -1.46120237893803
