18
Coordinates from ORCA-job run
  C   0.51670218900162     -0.05527062785203     -0.05889478141426
  H   1.59760015689271      1.72229808244243     -0.44127060508114
  F   -1.14091811242849     -0.19321368195521     -0.40259279880897
  H   2.34817194190931      0.00473057720739      0.46678716990946
  C   0.58373372962209      1.48842330506914     -0.13020482874978
  N   0.92359221572856     -0.76445347465570     -1.25686204680749
  H   0.16401285093739     -1.39399946016612     -1.48936627328216
  H   1.76583387492108     -1.26986519227904     -1.03826425018464
  N   0.31065749350067     -0.72012560236517      1.22606834467559
  H   1.17561491830419     -1.17159016419339      1.46984583594592
  H   -0.44079817438807     -1.38702607894826      1.08958020532014
  C   0.33403769724719      2.08255177595732      1.25133415368843
  H   -0.67102422065650      1.81945697466587      1.59015353135162
  H   1.05355229211452      1.69067020356193      1.97054974374990
  H   0.42348473945350      3.17631652518077      1.20701689778174
  N   -0.31390551317191      2.05021806717485     -1.16429152546341
  H   -0.40169474562128      3.04395508469236     -0.97531724713143
  H   -1.21828333336657      1.61831368646284     -1.02913152549952
