11
Coordinates from ORCA-job run
  C   -0.19004122955920      0.03292760010107     -0.27790038394887
  C   -0.08150644040540      0.19366249358133      1.14902419408479
  Br  1.67277911318138     -0.33846409793893     -1.33668947843220
  F   -2.47503135675953     -0.47528013173335      1.53096110372930
  H   -1.37205525456864      0.09484771926279      1.37793943370057
  H   -0.53300338208279      0.91487352642150     -0.81668975276953
  H   0.39297543436230      1.13127725490201      1.45209551988189
  N   0.40651219975179     -0.94885158380358      1.91375438521806
  H   1.13098740523853     -1.42807602424135      1.38581187262161
  H   -0.38355690692648     -1.57688728790946      2.01414977938643
  H   -0.72900958223197     -0.86425946864204     -0.57071667347206
