13
Coordinates from ORCA-job run
  C   -0.23229929157399     -0.01293359799650     -0.25911633787361
  C   0.08316615397839      0.08849566171399      1.07823648953315
  Cl  1.77501628830209     -0.31059138754371     -1.71867180265956
  Br  -2.93308775229839     -0.03147135839917      1.94519838906115
  H   -1.32454457465764      0.11979568251447      1.10681819955901
  H   -0.66448588988034     -0.93405578095322     -0.62615800931164
  H   -0.44394052387556      0.88975899583570     -0.81343573238315
  N   0.49268275156464     -1.02447456996401      1.83673561189560
  H   0.36341473464747     -1.88494800829659      1.32306427488406
  H   -0.02932156585921     -1.05028041361188      2.70577369363742
  N   0.48214976462509      1.29775762446715      1.70625726143415
  H   1.49461264592696      1.28955683712317      1.76904393139950
  H   0.18992725910047      2.09723031511060      1.15946403082391
