13
Coordinates from ORCA-job run
  C   1.09110031444654     -0.12031512365151     -0.00551912471833
  H   1.24673531473007      1.92009124934861      0.29499707557678
  Cl  -2.95894045812601      1.80403358220735      0.47267974746614
  F   3.22834593142637     -0.57435402503365     -0.40412803306355
  C   0.44113578484570      1.21847378054758      0.04945030684018
  H   1.62500091936297     -0.53343027099863      0.83239579469012
  H   -0.27369567578926      1.23709275664729      0.88255558574310
  N   0.89915953978227     -0.86079886435892     -1.04964391394435
  H   0.45419230152395     -0.34877570550688     -1.81124597101824
  H   1.71363398980349     -1.46357818323401     -1.17726999945380
  N   -0.23250653704019      1.51694311256379     -1.20731889885261
  H   0.09026593468074      2.40192166342419     -1.57196931887125
  H   -1.22593735964666      1.62158602804479     -0.98038325039419
