17
Coordinates from ORCA-job run
  C   0.58019871132101      0.03503830988952     -0.02896695278139
  H   1.64742846385796      1.87123813881025     -0.35817700731462
  Cl  -1.56700726609942     -0.24280572089406      0.29906796178635
  H   2.29443912441742     -0.09997749710117      0.35095363285830
  C   0.61805470210607      1.57978279839630     -0.13946019594953
  C   0.71530055512280     -0.76354266502898     -1.31525666408126
  H   -0.08629769025448     -0.47170014877338     -1.98985406358095
  H   1.66445967681865     -0.57493161084083     -1.81919228836151
  H   0.62491429307967     -1.82854766755153     -1.08937023537528
  C   1.24012905562554     -0.48305966334551      1.16033260263358
  N   1.28650635026567     -0.93695059459791      2.27125831500707
  N   0.25271838466130      2.25502405725113      1.10575245816828
  H   0.93422456390652      1.99033288047175      1.81266019203509
  H   -0.62315523605997      1.83752444683178      1.41055337549678
  N   -0.18166100182239      2.02235548346441     -1.27229968412572
  H   -0.21187298421570      3.03458448336442     -1.20991063958763
  H   -1.12704970273069      1.68486496965383     -1.12205080682754
