17
Coordinates from ORCA-job run
  C   -0.90958266591695      0.07275514800106     -0.39333481301496
  C   -0.14590698800592      0.01104901740921      0.84112534655986
  Cl  3.62792354256967     -0.67137252013694      1.38309643714024
  H   -2.23255755266223      0.89085489974761      1.40166853240802
  H   -1.32843834200840      0.24268773723950      1.45538491175985
  C   -1.38322448535873     -1.19289030588330     -0.89472408878272
  N   -1.73112924590701     -2.24114606018611     -1.30526136536004
  C   0.61505889061012      1.23873895801779      1.30099904230122
  H   0.07094091138233      2.16488174902139      1.10946167703642
  H   0.80308540488685      1.15592991424175      2.37211555596068
  H   1.58891536421153      1.25022742055799      0.80826656229710
  N   0.44155160139590     -1.16403683680893      1.30240883970438
  H   1.45810620049109     -1.07104145449262      1.42982632505649
  H   0.21039560851769     -1.98680670180451      0.76273920452044
  N   -1.69595540846301      1.13115304595701     -0.69802423501479
  H   -2.39784173296283      1.15966204059808      0.47711288452275
  H   -1.17344110278010      1.98148394852106     -0.48701081709502
