13
Coordinates from ORCA-job run
  C   -0.29839447732778     -0.19862004037771      0.11966047357827
  H   1.57903848475131      0.80324085798638      0.36001801317723
  Br  -2.07183872411171     -0.01816766650867     -0.67357597067319
  H   2.99638484636920      2.33521145297794     -1.19012525842876
  C   0.53380918319091      1.07549929466554      0.14144181810910
  H   0.22436604270022     -0.90197398759183     -0.52644600794425
  H   -0.44657147012048     -0.62710208062167      1.11167531143262
  N   0.12502848586621      1.89898600867208      1.38159062903399
  O   -1.06472344052939      1.89386374586830      1.71639331170564
  O   0.99593419113996      2.56691444311353      1.93355575642015
  N   0.56055840052527      1.79890134791424     -1.05360719397092
  H   1.56291608557171      2.20114888439239     -1.18472188748067
  H   -0.21033760802542      2.44463773950949     -1.16023899495921
