14
Coordinates from ORCA-job run
  C   -0.29585307104015      0.01622894475067     -0.29290724354934
  C   -0.34890419116171      0.18046845604058      1.13674619519488
  Br  1.80643761715477     -0.21893861048591     -0.96789493229114
  F   -2.80158536116336     -0.44952653438407      1.19871269412748
  H   -1.69486337333676      0.01370869587742      1.25369933179258
  H   -0.00260582020110     -0.74429295226865      1.62648309527859
  N   -0.93682113559094     -1.15665951291324     -0.84299606711911
  H   -1.84325882698039     -1.16972001202915     -0.36205129935665
  H   -0.41407202375248     -1.96214180377635     -0.51622310942674
  N   0.22260484439579      1.42314997047728      1.60613432069190
  H   1.23572265355388      1.34837433257850      1.64575264240131
  H   -0.12086914753863      1.63437682358531      2.53332423382445
  C   -0.66897181233262      1.21884615826800     -1.03676022047336
  N   -1.02365035200631      2.16060604427959     -1.64464964109485
