15
Coordinates from ORCA-job run
  C   0.97875127118641     -0.11535395456626      0.29288205973802
  H   1.87304320876737      1.79298690985590      0.49351962619455
  Cl  -2.57447885663524      0.42550580331319     -1.30619648083536
  H   3.14201101386671      0.04722065346491     -0.73769957610226
  C   0.93222782653708      1.38630857971268      0.13135108789736
  H   0.86852835372256      1.61434227515892     -0.93124209240097
  N   0.01365379997352     -0.81261618413930     -0.24735114186350
  H   -0.78654805115137     -0.37135041042398     -0.74597546810880
  H   -0.05001501775758     -1.80575905911659     -0.08798929280337
  N   1.75380717342797     -0.64009679282551      1.29105111722512
  H   2.70257882918192     -0.33101317045305      1.05224316822384
  H   1.73059562540762     -1.65221001933187      1.32057863349840
  N   -0.20800759788011      1.98350944243108      0.82700244623407
  H   -0.26189275535706      1.62014214703335      1.77099487707296
  H   -1.06883482328982      1.73804377988655      0.34509103602993
