16
Coordinates from ORCA-job run
  C   -0.15518962278818      0.16886181634554     -0.26014935550438
  C   -0.14621140695247      0.18976190445537      1.26289310806402
  Cl  1.57888065367072     -0.16950894340296     -0.85344453678660
  H   -2.57330954251050     -2.08052249071183      0.98712176734150
  H   -1.18953115377188      0.36827165496749      1.55518587090384
  N   -1.04989252269118     -0.79261858484289     -0.80102606946513
  H   -1.62251359124011     -1.32701102384647     -0.08749764353242
  H   -0.61274697119242     -1.43276782327309     -1.44592144204454
  N   -0.39991215174820      1.53819953730971     -0.73207952156176
  H   -1.34162754015045      1.73479641251871     -0.39666238598180
  H   -0.50296760327534      1.45678141980713     -1.74094465906737
  C   0.30413560128608     -1.10306945538346      1.92714742231213
  H   -0.42271168701883     -1.88764274634002      1.70505535440551
  H   1.30285365960476     -1.39523938345303      1.59573725791947
  H   0.32903798622352     -0.96873641410995      3.01386187263349
  H   0.45652589255447      1.04681411995978      1.57632296036402
