17
Coordinates from ORCA-job run
  C   0.80489282527707     -0.08183034001488      0.06519604676154
  H   1.62835332013640      1.56876956235962     -0.93765737581922
  F   -0.71335227921370     -0.55925443089464     -0.98581694366938
  F   2.46765746286243     -0.01877694087833      0.81195367594689
  C   0.80817200686962      1.42205436759166     -0.21621214096032
  H   1.25135062354140     -0.74290209885587     -0.64792934173397
  C   0.10859233736194     -0.60485596448244      1.29108504284187
  H   0.67853185818186     -0.36726465402646      2.18732794038098
  H   -0.88668430249049     -0.16691426802809      1.35723644338182
  H   -0.01008003255266     -1.68513338871663      1.20035328839622
  N   1.08356613848226      2.12771960407875      1.04778420689019
  H   1.28222026156274      3.09808782081611      0.82666448878259
  H   1.93690349843870      1.69157064016894      1.38645510769317
  C   -0.46849153883281      1.99693414532020     -0.80906597196868
  H   -0.72040227257201      1.49461736082037     -1.73751108243806
  H   -1.29673043355815      1.85369935614786     -0.11454631270681
  H   -0.33165947349463      3.07565922859385     -0.97490707177887
