16
Coordinates from ORCA-job run
  C   0.41700675809534     -0.06791924430458      0.05267605745847
  H   1.52419807644215      1.70013194720547      0.40700127788184
  Cl  -1.69924134006929     -0.16833102807389      0.58329220211949
  H   2.40545636365923     -0.04030952088519     -0.56997036590858
  C   0.53253953676267      1.45211377355623      0.03903680108797
  H   -0.19541986888295      1.86216671625050      0.74573437118979
  N   0.20175777723696     -0.79926744339054     -1.18569772516667
  H   -0.43921614805056     -1.56279955247407     -1.00677131811370
  H   1.11058348440225     -1.13402519510940     -1.46434619836065
  N   0.87315556623893     -0.70131832501030      1.27729590983672
  H   1.81882677294804     -0.99526036727615      1.08162084133442
  H   0.28470695880147     -1.50476186959741      1.46399278911785
  C   0.31726734461431      2.04727830440352     -1.33957539602190
  H   1.07537238636796      1.66108137284379     -2.02294270913850
  H   -0.66540706564460      1.77548893600254     -1.72827329175009
  H   0.39369339707809      3.14026149585947     -1.29808324556647
