16
Coordinates from ORCA-job run
  C   -0.27898332326869      0.17180243524149     -0.28049454337887
  C   -0.01065234710294      0.15943571856369      1.19663575480186
  Cl  0.42933906814512      1.67034954285709     -1.00936297057298
  H   -2.10053838488271      0.81650805480593      0.87345903246409
  H   -1.24110280698732      0.71876283279295      1.44178424233630
  C   0.27049643821356     -0.95438861172364     -1.01791407611559
  N   0.76262699486367     -1.81209617486855     -1.65496734691662
  C   -1.84316145707053      0.29427538467042     -0.57229044299507
  N   -2.60439418477962      0.13803831175870     -1.47779007053655
  C   1.09657079025161      0.94416265565089      1.83942668343867
  H   0.97476398979612      2.00866915420733      1.63943419782048
  H   1.04963620233402      0.78341021483889      2.91641840775750
  H   2.09010395614493      0.63650418788561      1.49429424295214
  N   -0.20442059997215     -1.15086594132272      1.72102312209928
  O   0.34319356983635     -1.48743937396442      2.78742999186197
  O   -1.03165790552142     -1.86506839139364      1.11606377498337
