16
Coordinates from ORCA-job run
  C   -0.33998416975634      0.02471162501044     -0.25951631725414
  C   -0.14497667088390      0.07114288484199      1.15166346358311
  Cl  1.56618512061375     -0.25181749396206     -1.22846251203686
  F   -2.63823084237037     -0.32157362998406      1.52578916161198
  H   -1.56017535872547      0.01338653947203      1.43440918834496
  H   0.33100705247032      0.98987014550168      1.50171610091572
  C   -0.81798115574568      1.30176456329577     -0.89972749693519
  H   -0.77527729138491      1.20932270545539     -1.98376031281968
  H   -1.85705367568562      1.45976008995988     -0.59015940559515
  H   -0.21419480400415      2.15184616873441     -0.57722133256913
  N   0.36846696157221     -1.10877463398769      1.82803819338516
  H   1.12037999280528     -1.50939560497292      1.27043226101979
  H   -0.36988329892730     -1.79770981319277      1.90515771635389
  N   -1.03655232270208     -1.12283936969300     -0.80762043290633
  H   -1.88892059580265     -1.17218971695477     -0.24702868804087
  H   -0.48969894147311     -1.94752445952433     -0.58882958705727
