18
Coordinates from ORCA-job run
  C   -1.09984600785428     -0.10743922249913      0.02297954981292
  C   -0.15655963870267      0.11040627411020      1.20775735489248
  F   2.38252544778616      1.00449864184862     -0.95236536453582
  Br  -2.71841476688072     -2.94203500205139      1.69762844922668
  H   -2.02460534986834     -0.59635287904360      0.34813059016893
  C   -0.42480182927664     -0.90607956626037     -1.07238817486374
  H   -0.21291748950308     -1.90023951814420     -0.67432070082124
  H   -1.08960124978099     -1.01329951664968     -1.92913252658815
  H   0.49797312597498     -0.42037729943912     -1.38630263033928
  N   0.85738055692673      0.94710502245047      1.16393814035222
  H   0.71498298074412      1.88800693805134      1.49416656297028
  H   1.80016904094185      0.99343929133921     -0.18575779231218
  N   -0.36734658024450     -0.75070877594080      2.18518579098473
  H   0.28992102534825     -0.73100324279213      2.95112641453776
  H   -1.10683055573361     -1.47593161034208      2.14447100492003
  N   -1.51260966298902      1.25690486267337     -0.44149416457689
  O   -1.49110829178448      1.51508474994239     -1.64227722784277
  O   -1.88924075510372      2.03435085274690      0.43569472401400
