13
Coordinates from ORCA-job run
  C   0.53861612393836     -0.02699112517559     -0.03269977344526
  H   1.89464398599324      1.57395232794024     -0.11668221970359
  Br  -1.81285279284406      0.13550535548155     -0.05967167066589
  F   2.55950103836478     -0.37016784207668      0.26721945365037
  C   0.81951661186697      1.45915962352124     -0.00390576469066
  H   0.49561008218469      1.88863795232556      0.94433489218291
  H   0.27779986750138      1.95571428708529     -0.81023950326414
  C   0.67378995809927     -0.76612970477015     -1.34679679959259
  H   0.31252339067513     -1.78948807712743     -1.24240027391740
  H   0.08764998414965     -0.26836039731745     -2.12023910927702
  H   1.73286145391937     -0.77476484055771     -1.59072214500730
  C   0.58096561009105     -0.76972901414118      1.20605531932007
  N   0.49834468606016     -1.36012854518768      2.22166759441050
