18
Coordinates from ORCA-job run
  C   0.09387725936942     -0.11319474054595     -0.06877125255917
  H   1.55817874291790      1.31327931197267     -0.10347377157817
  Br  -1.93914087367124     -0.24657836335045     -0.26268733816427
  F   2.96593537839190     -0.00268898714299     -0.12201956365842
  C   0.46424822388071      1.37473498392620      0.00412587360436
  N   0.68919675139055     -0.66164339114610     -1.24617683930054
  H   0.55231462172720     -1.66858291657978     -1.21718062558335
  H   1.71202320287607     -0.48048055214964     -1.03968477764528
  C   0.46069794284319     -0.86620240360564      1.23172534323306
  H   1.21817838650170     -1.60635873146328      0.98021661683491
  H   0.92994312308646     -0.20344394594612      1.95507010065980
  H   -0.39936160035464     -1.34177232319757      1.70375192525276
  N   0.05743434929058      1.96079473444928      1.30565025803539
  H   0.01454414680427      2.96400160109833      1.16635029404100
  H   0.80317951930366      1.80423880698226      1.97586887273639
  N   -0.08317104135557      2.12546994941767     -1.10279147732027
  H   0.37216939717279      3.02908519137481     -1.14886134866132
  H   -1.07821753017492      2.25916177590632     -0.95831228992688
