12
Coordinates from ORCA-job run
  C   -0.59714659617638     -0.18121586701186      0.26053770413213
  C   0.75718871626796     -0.32253712123974      0.99982095950025
  Cl  -0.60941424326518      1.56324379505598     -0.44055094839300
  Br  -4.09592430698476     -1.23019651047992     -0.96696151370242
  H   1.36743832118774      0.57704078437584      0.91220224396934
  H   -1.44762912679248     -0.17089038317616      0.94005397425608
  H   1.30234551284215     -1.15381925741313      0.54683433546527
  N   -0.78643636562775     -1.19488749181036     -0.67815714306404
  H   -0.19633902293997     -1.09054803962995     -1.49340756412493
  H   -1.77770281808370     -1.27706869395235     -0.93991894645594
  C   0.57883688495638     -0.61287787885745      2.42036495224941
  N   0.45006304461593     -0.83177333586094      3.56611194616782
