16
Coordinates from ORCA-job run
  C   -0.20801826337995      0.11007508417731     -0.44709924805514
  C   0.08098038080543      0.00461254359187      1.04858616079206
  F   1.04311902006218      0.27188036966705     -1.09502339732777
  Cl  -3.27829364157834     -0.63079536541358      1.52387695749759
  H   -0.88255962151191     -0.13372718949936      1.56079177932964
  H   0.69738346491201     -0.88162966999012      1.22973007778701
  C   -0.84018872711578     -1.18930789380332     -0.95160753249058
  H   -1.81912629598168     -1.00599883854510     -1.39289613161564
  H   -0.17479096466307     -1.62529534932231     -1.70066283653855
  H   -1.00275858153746     -1.90194414233827     -0.14365598014319
  C   -1.04733465801653      1.32518866058468     -0.77034776814154
  H   -1.21920510993888      1.37093295333966     -1.84913360378314
  H   -2.00380205594986      1.23084132501705     -0.25119462499565
  H   -0.54002796494274      2.24045895522538     -0.45619902813864
  C   0.78744859746608      1.17128634430740      1.57031448575189
  N   1.36306442137049      2.10585221300170      1.98692069007164
