14
Coordinates from ORCA-job run
  C   0.78960325885098      0.01316291395781      0.19642334384429
  H   1.74858651103865      1.98760691038969      0.33111700874812
  F   -1.35297252229332     -0.10206264588488     -1.29664619075832
  Br  2.21131803020856     -0.65540957342436     -0.97101867951249
  C   0.77105328853083      1.54471602989969      0.11839344026663
  H   -0.19696411191042     -0.31975391408619     -0.28368188946334
  C   1.03878738212227     -0.48082235743068      1.53447420121455
  N   1.22648001523187     -0.88303428593404      2.62420515663522
  N   -0.05041429537186      2.02081428250052      1.34688866439601
  O   0.50576073471272      2.81933831878795      2.10742523887665
  O   -1.20693452779178      1.62719835931121      1.45742629003972
  N   0.22108706320034      1.93913744403652     -1.11175262008876
  H   0.00275606949688      2.92477183012154     -1.14023201123343
  H   -0.57396689602573      1.29411668775523     -1.34775195296487
