13
Coordinates from ORCA-job run
  C   -0.48015498255326     -0.05665896876844     -0.19142639457762
  C   -0.58812248726438      0.09452130295523      1.19963257606591
  Cl  1.73523571325206     -0.37906641181570     -0.72088635519433
  Cl  -3.24517508758835      0.53661882118537      2.26931492425069
  H   -1.92126223418013      0.28307024302410      1.47643840005221
  H   -0.47267271564615     -0.84655668481231      1.75091014685339
  C   -0.65760459677017      1.11625983692234     -1.01196370542024
  N   -0.87409037331292      2.05111415557475     -1.69409061555912
  N   0.01546038204861      1.28414181346156      1.70424437070133
  H   1.02374103375502      1.21776046365676      1.59826461378462
  H   -0.23232143539823      1.42932180064500      2.67346328253869
  C   -0.98772274275892     -1.28131551621729     -0.75525162415891
  N   -1.41248047358318     -2.29583085581133     -1.17607961933659
