14
Coordinates from ORCA-job run
  C   0.51833736621271     -0.01820479501824      0.11343986003622
  H   1.64634282226892      1.56587430355339      1.08108216557662
  F   -1.14096276371735      0.05163714145120      0.23462444924288
  H   2.34025737111390     -0.01459728905204     -0.31361578223004
  C   0.85729296287321      1.43971746975448      0.34713550046688
  H   0.48081288743531     -0.35511517705001     -0.90582903193144
  H   1.09830574453897      1.94906484486542     -0.58073175669313
  C   0.79343712780517     -1.01322542629074      1.22450378398613
  H   1.10834293136335     -1.96841662185406      0.80171790368542
  H   1.59436206059851     -0.66808443610788      1.87743408749363
  H   -0.11762733741913     -1.15779047234153      1.81019996011687
  N   -0.31842761610922      2.21342721490110      0.93280259151528
  O   -0.96003330959203      2.95642073583165      0.19146796365257
  O   -0.52309024737233      2.09074250735726      2.13946830508206
