14
Coordinates from ORCA-job run
  C   -0.20883354242018     -0.04095214568731     -0.33913719656328
  C   -0.13547562016981      0.09623745316975      1.03958003290482
  Cl  2.11131387001607     -0.02294240055381     -1.15179448490435
  Br  -2.93862625439075      0.32797168201123      2.20842974843649
  H   -1.54691233202815      0.21531386250662      1.25892268148065
  H   -0.37616199652731      0.85716423228192     -0.91794612951131
  C   -0.60209308744209     -1.29035278757255     -0.90310825280536
  N   -0.97341105738845     -2.32957508741388     -1.31787348272729
  N   0.23499312583399     -1.01655829763432      1.85141399316016
  H   0.23545189292518     -1.87847091289615      1.31870384445135
  H   -0.41116405886908     -1.11259677855822      2.62846014959005
  N   0.29774856055987      1.38710766736776      1.46793922796661
  H   1.28513857708030      1.44285153163179      1.22012084405363
  H   0.21055192282040      1.45383198134718      2.47492902446780
