14
Coordinates from ORCA-job run
  C   -0.16401936680548      0.01740069942713     -0.24635720151956
  C   -0.00124326226843      0.06671774836935      1.23752319314061
  Cl  1.18371376682891     -0.66442327847250     -1.13368574708025
  H   -1.99228894852660     -0.77850367109700      0.73675507776133
  H   -1.34226698245594     -0.37809084900006      1.42214391939459
  C   -1.49982255402846     -0.84999561644495     -0.60823802129510
  N   -1.94883204123303     -1.36446236666365     -1.58535879697364
  C   0.19340517972189      1.31465597296456      1.91254614311375
  N   0.34867890174032      2.31168832432381      2.52293176791689
  C   0.78797025030498     -0.99992269668971      1.78602428086123
  N   1.39432804658601     -1.88872959516200      2.26614214810026
  N   -0.51287658843355      1.39336554893722     -0.75889413209031
  O   0.06889353695805      1.86023408460615     -1.72911220229979
  O   -1.44535993838870      1.91653569490164     -0.15090042903001
