16
Coordinates from ORCA-job run
  C   -0.15608286803915     -0.06197154402589     -0.39066530900748
  C   -0.05731310841268     -0.04114896198027      1.13657523916803
  Cl  1.49460047926908     -0.33890939998184     -1.12887346072287
  F   -2.85254340897053     -0.17960838647848      0.77482391331134
  H   -1.10911484613311     -0.06705205340233      1.46194489594237
  H   0.52028189767547     -0.89701222275051      1.49490982279418
  N   -1.01019692092109     -1.14814030660994     -0.79351208802824
  H   -1.90709313203680     -0.92852199225655     -0.27584418480083
  H   -0.63355714831605     -2.01155316911344     -0.41037945236680
  C   -0.74781427260183      1.23091094350559     -0.90871365254494
  H   -0.86659615060380      1.15337039003089     -1.99013657002256
  H   -1.73010976993648      1.29509498048603     -0.43049196419014
  H   -0.12256172811397      2.09202622467340     -0.66746510876425
  N   0.57342025523527      1.16747664712744      1.74664990124547
  O   1.64171500964183      1.57933644982259      1.29289437480099
  O   -0.00853428773616      1.67582240095331      2.70691364318570
