19
Coordinates from ORCA-job run
  C   0.82498831581723     -0.07682678830241      0.27580154913894
  H   1.74434426512445      1.78589876168406      0.38400254619430
  Br  -3.14422390090953     -0.05635695168570     -1.16608143500752
  H   2.86882919870254     -0.02589891954344     -0.94355174649990
  C   0.75548734537301      1.41396993848613      0.11163701808485
  N   -0.15715963903148     -0.80109276707052     -0.19258501854437
  H   -1.00439931033038     -0.42393634042185     -0.65581157039680
  H   -0.17344459543505     -1.79666978019322     -0.03358405276235
  N   1.66439584003458     -0.58248092311005      1.23744699732464
  H   2.59558923892291     -0.28596101884515      0.93538450688398
  H   1.64527628921482     -1.59477584462508      1.27233463476442
  C   -0.30229991045638      1.93938174625232      1.09741147348963
  H   -1.30149186177774      1.61234718601014      0.79980902633568
  H   -0.09896797440560      1.59151282837495      2.11413289131273
  H   -0.28674131060257      3.03330274538344      1.09655621848016
  C   0.44812472728400      1.83072264640736     -1.32125761738555
  H   1.19776695954832      1.38667912912197     -1.97766322161306
  H   -0.55539613408205      1.52114882442533     -1.62255493662474
  H   0.49707245700889      2.92163552765173     -1.39731726317502
