13
Coordinates from ORCA-job run
  C   0.63307012903188      0.01759181934943      0.03121768523169
  H   1.47023998945114      1.94060683369676      0.41238966167098
  Cl  -1.65235682982019     -0.29154052296392     -0.10548689070570
  Br  3.12133980269089     -0.09326473296605     -0.19996983023838
  C   0.51822894419020      1.51729092407073      0.09952393401525
  H   0.68386331225005     -0.55965506844800     -0.87031586405588
  H   -0.22796542709543      1.75755599042863      0.86201863591264
  N   0.70610089603567     -0.74061142340628      1.29060039289760
  O   0.71617407004561     -0.08351602643463      2.33142103623775
  O   0.73935998008041     -1.96275259130598      1.21643558925539
  N   0.19168105586843      2.01106504599383     -1.23464928956386
  H   0.30900681039235      3.01592094808389     -1.24939290288818
  H   -0.78293273312100      1.79976880390162     -1.41188215776929
