16
Coordinates from ORCA-job run
  C   -0.25986718973852     -0.02984497219270     -0.26120296082714
  C   -0.25025334346326      0.06026993120181      1.12861868814543
  Br  2.05953614479035      0.01243664500576     -1.08104181626058
  Cl  -2.94979700840434      0.21254009511377      2.22142009755848
  H   -1.61396640259974      0.10992277008681      1.43788813101826
  H   -0.53612114475169      0.85246625588572     -0.82169662719291
  N   -0.72537743643368     -1.23350144785202     -0.94601695859379
  O   -1.36732169695106     -1.04254339314092     -1.98364224477470
  O   -0.47688015093316     -2.34233096272072     -0.47250643908698
  N   0.17955057346253      1.38136404506164      1.50880510030659
  H   1.16481067408085      1.47267587362222      1.26473284258149
  H   0.06290740153947      1.50720170659758      2.50668150124780
  C   0.18852545649540     -1.08136807249011      2.01598003814290
  H   -0.37063292763751     -1.99589960533588      1.83339337674138
  H   1.25225488017676     -1.27592372843976      1.83260226558585
  H   0.04539217036764     -0.78777514040318      3.05948500540792
