15
Coordinates from ORCA-job run
  C   0.45399706501855     -0.03296129374503     -0.03058611275679
  H   1.76140366450600      1.61903342401836      0.04739736246720
  Cl  -1.66331395292804     -0.06095183093832      0.27066044827413
  H   2.55483975416161     -0.51224960574118      0.28424547545821
  C   0.68939662502360      1.46797156669768     -0.05708601408776
  H   0.67078707630310     -0.53741326997066      0.88969779594180
  H   0.19813160215486      1.90678342607068      0.81684246364343
  C   0.53978796214197     -0.82026393576234     -1.32173104859956
  H   0.49472865806252     -1.88706225775565     -1.09734305565793
  H   -0.29863422805719     -0.56618147948764     -1.97608835381302
  H   1.47666842922134     -0.62594969614596     -1.83525628972002
  C   0.18946011483697      2.16337987992783     -1.32014351157770
  H   0.71188328081033      1.79582189679358     -2.20735241994168
  H   -0.88155938671595      2.00803788418706     -1.46051985639075
  H   0.37318333546033      3.24102529185160     -1.25355688323958
