13
Coordinates from ORCA-job run
  C   -0.17294190089211      0.40601175089961      0.02390449084751
  C   -0.05310550455530      0.21114361068149      1.38506160459551
  F   1.08873774603838     -1.91206273132754     -0.52914624763753
  Cl  -3.02817276713165      0.28909991800833      1.60929392411887
  H   -1.47942533976311      0.03431385765490      1.36955495262269
  H   -0.14988636769607      1.05358668114411      2.07367497316449
  N   -0.75575079227126      1.50342277455201     -0.55041724881650
  H   -1.31100439501031      2.07020682530353      0.07674293962959
  H   -1.24898900455792      1.30091576570389     -1.40605032985889
  N   0.57222339299845     -0.96646889587731      1.89341964777667
  H   0.80103995724960     -1.54575046272871      1.04881693503753
  H   1.45014369181489     -0.70726551905397      2.32918461550187
  H   0.18071128377640     -0.44535357496037     -0.59577025698182
