17
Coordinates from ORCA-job run
  C   -0.25888580183460      0.00436495073876     -0.23263300271289
  C   -0.06340841551101     -0.04617293972084      1.19049649731116
  Cl  1.49222004052222      0.28384080906855     -1.27286757576381
  F   -2.58353789243483      0.00576476198762      1.58632153699212
  H   -1.41672505375770     -0.07775575514123      1.46710494288196
  H   -0.73710378769504      0.93876416480510     -0.52827022737810
  C   -0.89112716989004     -1.18776612288208     -0.90882634914281
  H   -0.26948477335710     -2.07820935007140     -0.80793258846562
  H   -1.85329748431244     -1.34903837973104     -0.41489109121368
  H   -1.04906628843618     -0.99946268057863     -1.97218711425360
  C   0.65842720304606     -1.25363328472091      1.74264637352063
  H   1.71217504273642     -1.28062278733927      1.42341990646225
  H   0.63877933341789     -1.20928611341337      2.83442761110715
  H   0.18871010628418     -2.19261340537008      1.43452745962992
  N   0.43899039376629      1.18941688404245      1.79103583710141
  H   -0.30996390824887      1.87394471891517      1.77758231620736
  H   1.19115845570475      1.55423452941119      1.20756546771656
