12
Coordinates from ORCA-job run
  C   0.72517590970745     -0.09672840340861      0.01845172915205
  H   1.62572879161540      1.78996437849347     -0.24923549266987
  Cl  -2.17432241004788     -0.05455678806100      0.00240276480602
  Br  3.60106172937679     -0.11622241835541      0.18313463546181
  C   0.63393273565369      1.39300703488265     -0.03987207031907
  H   0.27253959933223      1.76759044019150      0.91443603638531
  H   -0.09223630895477      1.67054794302372     -0.80193666159709
  N   0.62201354171548     -0.81538733953298     -1.05738769494262
  H   0.37056065818172     -0.37178101443389     -1.92583279726863
  H   0.57482335153232     -1.82023202796398     -1.00408511368089
  C   0.79102711227924     -0.78961136857075      1.27520350344634
  N   0.74377528960834     -1.35830043626474      2.30503116122663
