13
Coordinates from ORCA-job run
  C   -0.42737087977186      0.15278690096692     -0.18939568830664
  C   0.02777657335550      0.18353595836455      1.08698221641967
  F   1.33287461197085     -0.83820266629114     -1.05135532188804
  Cl  -2.85974785328213     -0.01085418804217      2.59254391512057
  H   -1.80656246711988      0.04159394881174      1.77917375899665
  H   -0.68500241177850      1.04508923446630     -0.74754458142777
  H   0.18958564349279      1.16935693917669      1.52505891980152
  N   0.76430179680493     -0.91018893087361      1.62262886261778
  H   1.16949252829061     -1.30168722503018      0.75772145653071
  H   0.16194446899317     -1.60740589233844      2.04299145793381
  N   -0.96983358726949     -1.02783923459880     -0.85121939866592
  O   -1.37972040360368     -0.85993153866058     -2.00040945611313
  O   -1.11401802008231     -2.06847330595127     -0.21095614101921
