18
Coordinates from ORCA-job run
  C   -0.26293594669713      0.05083157858698     -0.25312431446871
  C   -0.10370856617591     -0.02344755862110      1.18976120865158
  Cl  1.69924942355076      0.16389480528471     -1.11456875936121
  H   -2.45320061827993     -0.74455473654731      1.43226500199181
  H   -1.34521555103480     -0.24468110446956      1.41283607250392
  N   -0.85233893685937     -1.09389240251876     -0.85594493836547
  H   -1.78355700700789     -1.14253713509665     -0.39381503015299
  H   -0.35626836202624     -1.91031982521771     -0.51480572003030
  C   -0.92081207126064      1.29710153118696     -0.77059923649896
  H   -0.99181498980737      1.24674033226732     -1.85652619193195
  H   -1.93555639115975      1.32833416195158     -0.34300861707975
  H   -0.37798764477931      2.19597780618894     -0.48348497760636
  N   0.32662847646701      1.16179676583531      1.90027690422302
  H   -0.34996923279676      1.90123872714291      1.75288557555031
  H   1.21524216849111      1.47281735454185      1.51141530269682
  N   0.53651876796639     -1.21472207515825      1.69229576710259
  H   1.22511494362139     -1.55627007580257      1.03001253592345
  H   -0.16476846221156     -1.93019814955466      1.86163941685220
