17
Coordinates from ORCA-job run
  C   -0.34503693245014      0.01658224188027     -0.26756349422991
  C   -0.01384920706984      0.10563206750199      1.05497501776131
  F   1.73245550395555     -0.84658007104148     -0.77135280966193
  Cl  -2.75118283970826     -0.14003596681286      2.20867807321320
  H   -1.46582447184307      0.05910265902477      1.45046580508906
  H   -0.48552493798557      0.95289264009938     -0.81341249150152
  C   -0.82848077042095     -1.20482662035002     -0.96373104030306
  H   -0.63041826504314     -2.09589723579439     -0.37291949287865
  H   -1.90736116789081     -1.12665941562168     -1.15945213043853
  H   -0.27845066903384     -1.29683305598824     -1.89756413157219
  C   0.46769925616440      1.41301590634973      1.62392915967186
  H   0.00913207054220      2.27374945085564      1.12731064060854
  H   0.24932285199204      1.46078211117514      2.69385891325672
  H   1.55308635692915      1.45555702331017      1.48954087181153
  N   0.57896850537977     -1.04681028464042      1.68854453544609
  H   1.19111500848536     -1.37031590049745      0.91860589828414
  H   -0.12090029200286     -1.74866554945059      1.90146667544333
