19
Coordinates from ORCA-job run
  C   -0.18490485682572      0.04705937466862     -0.32654321918585
  C   -0.15365973927538     -0.04646619596172      1.13137048919698
  Cl  1.57815347316454      0.21427115101126     -1.16626570367232
  H   -2.49385497745353      0.72530403567930      1.48233363624114
  H   -1.38690405677257      0.14282517640383      1.36343427395307
  N   -0.96471849853478      1.10306393394057     -0.86378490023423
  H   -0.42699449141601      1.95742400653776     -0.80770979103104
  H   -1.78008809315480      1.19093285252722     -0.22920162938151
  C   0.40873286105706      1.20888292479813      1.77085405699950
  H   -0.20040981790884      2.07842478274986      1.50787034588576
  H   0.35546497420647      1.11158601265746      2.85994734398383
  H   1.45048648730533      1.39199903707107      1.48304460105777
  C   0.38728455762720     -1.31297114361907      1.75865930000864
  H   1.44786529841770     -1.46835327797089      1.52253955623121
  H   0.28541128617491     -1.23954445562479      2.84689827702094
  H   -0.15523194243007     -2.20497567265687      1.43961672745983
  N   -0.73965078581691     -1.26727590348664     -0.89291987640815
  O   -1.94033199848941     -1.27087501850464     -1.15081070224533
  O   0.00162032012481     -2.24360162022047     -0.96667278588025
