17
Coordinates from ORCA-job run
  C   -0.20795527135003      0.00856594166201     -0.35516286962432
  C   0.06035567008135     -0.06111340877658      1.15109882025701
  Cl  1.44795709082085      0.17141992741052     -1.17373530333949
  Cl  -3.58949041991010      0.38054855056878      1.12857431926099
  H   -0.91733191479906     -0.27965495581673      1.59396219609137
  H   0.72901939695996     -0.90677301213219      1.34829836303732
  C   -0.87429033271940     -1.28613692471030     -0.84017656390519
  H   -0.23484668392553     -1.83047713269188     -1.53506171300000
  H   -1.11538111951094     -1.93287048767470      0.00486354547903
  H   -1.80946895227974     -1.03596762082728     -1.34032367108816
  N   -0.98920029531536      1.13378951375876     -0.79370560664856
  H   -0.58205993716654      1.99076155618896     -0.43591908439793
  H   -1.91296358256059      1.02989179045688     -0.35613603228600
  C   0.61088573449154      1.21203633412788      1.77856316102482
  H   1.51979290106494      1.55274204467151      1.27650524230588
  H   -0.13501725113671      2.00858800898804      1.74787163818433
  H   0.84916496725536      1.03879987479634      2.83161355864894
