16
Coordinates from ORCA-job run
  C   0.40880805633414      0.05015415562707      0.05089226343491
  H   1.81101881829292      1.54556414840070      0.49590705141029
  Cl  -1.49311498591713     -3.15621343319891      0.18852798975590
  H   2.64688817873625     -0.06154442861536     -0.97416978301575
  C   0.80790598984736      1.49710007712585      0.08163568689720
  H   0.10296709487853      1.97468880299585      0.78217758037225
  N   -0.67213271386219     -0.29899487299664     -0.60701957258924
  H   -1.13865644485772      0.36680645519047     -1.19620504823433
  H   -1.04041621756044     -1.26456699264232     -0.52037640353158
  N   0.91311294001915     -0.79878893726445      0.96942353089838
  H   1.92535824206624     -0.76551653760543      0.90872090382150
  H   0.52072828263247     -1.73679784157615      0.92111169877666
  C   0.78449430756654      2.19704918898283     -1.26918733171123
  H   1.50956671081725      1.68246085828490     -1.90311526057992
  H   -0.20342819930402      2.18735186123415     -1.74177511892912
  H   1.07217994031069      3.24577749605746     -1.15155818677592
