18
Coordinates from ORCA-job run
  C   -0.55704893923489      0.05338946359288     -0.24171435364046
  C   -0.19204394956300      0.03544889607645      1.13432571751238
  Br  2.66437889109546     -0.14961038160317     -0.87238423320730
  H   -2.32101669257419     -0.86797083376113      1.12338155784201
  H   -1.48129506756536     -0.20871836646649      1.43680849720115
  N   -1.20092813456565     -1.00897264097344     -0.78773312936970
  H   -2.11452021741089     -1.09003800733718      0.08223952811927
  H   -0.69234801318677     -1.85101179946298     -0.52054599467093
  C   0.38419818285722      1.29088826933213      1.74118856960155
  H   -0.14140453712353      2.19002577112576      1.41475136354862
  H   0.35019902688582      1.24017258889498      2.83325432725547
  H   1.42705314584119      1.35700345762643      1.41419783645095
  C   0.42706573959435     -1.23268439449328      1.68809960739796
  H   1.42754247984506     -1.31676456559122      1.25179039990603
  H   0.49530538076544     -1.16998980353215      2.77755001151288
  H   -0.15243665283764     -2.12621309095901      1.44420818209515
  C   -0.93000288614267      1.32570313468277     -0.80952257670270
  N   -1.26290775667996      2.36406230284865     -1.25441531085234
