19
Coordinates from ORCA-job run
  C   -0.17962442894265     -0.05222638684521     -0.33955016147850
  C   -0.13776863613204      0.00910020509171      1.12707029872933
  F   1.18175204593708      0.16449363375359     -0.94591515757755
  H   -2.40859912513921      0.73841622173727      1.86617151807393
  H   -1.54751969303596      0.37617231384195      1.54644341183128
  N   -0.66002248176296     -1.29710985411844     -0.85277194900877
  H   -0.01065280274251     -2.02754302789989     -0.58765227103436
  H   -0.65378952332875     -1.20494475385733     -1.86215766962000
  C   0.57355803307968      1.21888871057604      1.67264862912359
  H   0.26378593159262      2.13615484635987      1.15742288343602
  H   0.29953742660825      1.36035012714323      2.72975741791689
  H   1.67455616106972      1.16508766830217      1.61399020989293
  C   0.24891990058257     -1.25469624614646      1.84914280193168
  H   1.30615345503164     -1.56487333562641      1.71688942476739
  H   0.09921168991129     -1.11425182153452      2.92957683182303
  H   -0.38909347046794     -2.09800154119876      1.56020536708004
  N   -0.94403911979707      1.00309707940747     -0.99731937280247
  H   -1.77117520712938      1.14038665730776     -0.41847958097065
  H   -0.39345015533439      1.84932950370597     -0.92633263211381
