10
Coordinates from ORCA-job run
  C   -0.15328562273390      0.13747535132425     -0.31901301035051
  C   -0.20635928153394     -0.05309553783909      1.20244420495606
  Cl  0.99107572057867     -0.92737295508111     -1.20307453213180
  H   -2.87450735263626     -0.34278741541584      0.74548939290554
  H   -1.30273262877231     -0.31873232093724      1.37115121690120
  H   -1.16731234519575     -0.08146761245168     -0.67698564637478
  H   -0.02691603520662      0.89767017791008      1.71279458844889
  C   0.68927720129144     -1.04314554882378      1.76426739309501
  N   1.38473050314379     -1.84386529072537      2.27203305541265
  H   0.12660984106487      1.15612115203977     -0.58263666286226
