13
Coordinates from ORCA-job run
  C   -0.23075585426930      0.12180750147317     -0.41932412622713
  C   -0.10538095204239      0.07682582748562      1.07329100319959
  F   1.00785442133969      0.36762184311934     -1.07263994272733
  H   -2.54953916044170     -0.41995188026444      1.61843787211545
  H   -1.29780404381812     -0.13199434487889      1.44341777463067
  H   -0.87438284107214      0.96307798731773     -0.69915225724896
  C   -0.79977777264579     -1.17136907773953     -0.95124408468782
  H   -1.75378561271072     -1.35449187738128     -0.44662786973320
  H   -0.94553014272511     -1.11911082878983     -2.03349683595464
  H   -0.11378157192065     -1.99399674452973     -0.72996491748054
  C   0.41984018677905      1.28250152747339      1.65567488878431
  N   0.79008780792041      2.28096585274293      2.16211465323418
  H   0.46647553560677     -0.79647578602850      1.40342384209542
