13
Coordinates from ORCA-job run
  C   0.71109876829447     -0.04687389647117      0.01347819285016
  H   1.65998403566480      1.77872647229102      0.62344260281896
  F   -1.29745321230568      0.11861502951235      0.14484526079402
  Cl  2.85337008551160     -0.41732676864217     -0.43593191431505
  C   0.81286428432172      1.46172657388921      0.01436505281569
  H   -0.12505707308042      1.84575731878492      0.40602550896493
  H   0.96524397289734      1.82681823666914     -1.00146967247090
  C   0.26206878842212     -0.72775125495845     -1.18020684022461
  N   -0.00588373705006     -1.29837661106587     -2.17385436496465
  C   0.70846313172780     -0.78115187672191      1.33567225178385
  H   1.55867463733027     -0.46237657442275      1.93961732636654
  H   -0.23420393413706     -0.55587872294481      1.82657677811134
  H   0.79122025240308     -1.85518792591951      1.16874981746972
