15
Coordinates from ORCA-job run
  C   -0.20153103390171      0.01272963176306     -0.42832966554846
  C   0.01229060257030     -0.07243178802311      1.09159054812245
  Br  1.55910154761221     -0.05924782913847     -1.37516093152831
  F   -2.58080909370648      0.72122642167537      1.12394195924948
  H   -1.05982356152553      0.02136732089972      1.41395161294937
  H   -0.71031620654165     -0.89664065417998     -0.75333844178228
  N   -0.95236597875694      1.14543177188149     -0.86572727650460
  H   -0.43780806608470      1.98775418865406     -0.62718723722562
  H   -1.78468565496590      1.10759952535548     -0.21131519308901
  C   0.55730797176275     -1.35954746888863      1.49113777925866
  N   1.01081747776131     -2.39070246603786      1.82988232333438
  C   0.80933149097028      1.09902942638584      1.68885074635027
  H   0.20292559683643      1.60131992457037      2.44445418029460
  H   1.74803056876662      0.77214630954288      2.14010193196459
  H   1.05995433920300      1.83282568553979      0.91975766415445
