11
Coordinates from ORCA-job run
  C   -0.17625515222919      0.06861136328757     -0.28112344682248
  C   -0.07372486269890      0.19944648407050      1.14887207240237
  Br  1.69472207788620     -0.25009442698774     -1.34347600524271
  F   -2.45610869427270     -0.51299057965249      1.52495498925770
  H   -1.36008809814484      0.07800136775006      1.37328952035685
  H   -0.53210622311789      0.95630864280396     -0.80173622469291
  H   0.38208016805570      1.13849976747662      1.47525840978848
  N   0.43002809868675     -0.95126711665227      1.89015457830688
  H   1.16048019011795     -1.41017328604921      1.35268040995272
  H   -0.35188999486935     -1.59107879743503      1.97924913553401
  H   -0.69880750941375     -0.83099341861196     -0.59551343884091
