15
Coordinates from ORCA-job run
  C   -0.08183483597336      0.09182085132151     -0.36741736295458
  C   0.48749335475946      0.14228941995347      1.07717609426419
  Cl  1.27443086312896      0.48778137046672     -1.55510833417990
  Cl  -3.19779292103300     -2.04758242784789      0.98470839555880
  H   0.09644566435596      1.03823268138971      1.56766406193176
  H   1.56844377299380      0.27463545446828      1.00068106410296
  N   -0.58280376540619     -1.19292761306735     -0.71834945375745
  H   -0.98210361958920     -1.16171542012289     -1.65019221744014
  H   -1.34674398193492     -1.47877946606930     -0.08346865608926
  C   -1.02833983441295      1.21080934059071     -0.57409594668123
  N   -1.78575782932553      2.09615174542581     -0.73176694531482
  C   0.18512990813716     -1.08864019098430      1.92708093357988
  H   0.62746577588809     -1.98179407260819      1.48601938626385
  H   0.61788791099049     -0.93966775219817      2.92112058287757
  H   -0.88505046257875     -1.26691392071809      2.03561839783838
