18
Coordinates from ORCA-job run
  C   -0.24834033208506      0.03304705513541     -0.39549529010177
  C   -0.26396458994921      0.03448922329523      1.06083933243686
  Cl  1.59626015133393      0.00407389963383     -1.16048455216198
  F   -2.57622499711297     -0.46770575803057      1.88505110158504
  H   -1.57128688037635     -0.06687746204801      1.39297745692505
  C   -0.91060025753916     -1.18138822453792     -1.01882329988004
  H   -0.38451665665924     -2.06465742528477     -0.66263320582867
  H   -1.93895823786516     -1.21674163917850     -0.64850711596054
  H   -0.89083956106954     -1.13230116884422     -2.10868212460058
  C   0.35693059083925      1.23856872929976      1.73345498854704
  H   0.01752787536343      2.18261914567714      1.29703200066893
  H   0.08078420836906      1.24322479669554      2.79309258037616
  H   1.45650323857851      1.21377392881026      1.66383735165400
  N   0.18662941247527     -1.24643910276066      1.59338715521702
  H   -0.46345068546419     -1.51389773095498      2.32328546820609
  H   1.11719575816490     -1.15865453804843      1.99077825446535
  C   -0.76798469397871      1.27634017019335     -0.95982044463378
  N   -1.21675434302473      2.26215610094753     -1.41835965691413
