13
Coordinates from ORCA-job run
  C   -0.18124292315537      0.10181807016512     -0.29830949432814
  C   -0.14723385671724      0.20875635975420      1.21576281055462
  Br  1.38646344025536     -0.71227970769576     -1.13685895541662
  H   -2.25301331070966     -1.68210468258180      1.32868954030269
  H   -1.17770288719404      0.45439888503849      1.49996257645807
  H   -1.01482906385320     -0.57597850879456     -0.49646965106657
  H   -0.32163210797438      1.06764289064804     -0.78644784213760
  N   0.21107249934099     -0.95104384915169      1.95489782106007
  H   0.93342570285562     -1.45887859919660      1.45482141391675
  H   -0.68525697035225     -1.50328425492075      1.90726788945534
  N   0.68144117893623      1.38716719366735      1.66821723030109
  O   1.79632385485441      1.54072041938490      1.16700063995760
  O   0.20448444371351      2.11405578368307      2.53972602094272
