14
Coordinates from ORCA-job run
  C   0.67460725230641     -0.06794045337093      0.03028424421190
  H   1.68419415695739      1.81863257578729     -0.02102819583158
  F   -1.13491133341530     -0.03677085653251     -0.15524827187988
  F   2.49423277905217     -0.16285734394697      0.00882840204693
  C   0.66653861206612      1.43132780728906     -0.00818656374549
  H   0.70079995482164     -0.61460631166602     -0.89139966450277
  H   0.08473079923474      1.83935172433702      0.81391965405187
  C   0.64149047102244     -0.74815952949199      1.37481008209488
  H   1.02160269029017     -1.76462743935841      1.27089370446372
  H   1.31404260858599     -0.22872308596204      2.05961945808342
  H   -0.37330585531453     -0.76351786186531      1.76667303085646
  N   0.01348220168814      1.96465964882113     -1.23632318481878
  O   -0.71558594215236      2.94892030284829     -1.10842985343712
  O   0.30349160485699      1.45650082311137     -2.31398284159352
