14
Coordinates from ORCA-job run
  C   0.37824627904742     -0.07628288872167      0.10536870131592
  H   1.33113293109345      1.68421619260534      0.77340397683341
  Cl  -1.57450662409072     -0.56936924427768      0.84520396270795
  F   2.07341988538719      0.13797231407561     -0.61654759109690
  C   0.41477558633721      1.42963277401851      0.24856489133715
  H   0.16197910815057     -0.56925756555006     -0.82034135332919
  N   1.07630886085534     -0.85518926264802      1.14812558551792
  O   1.43133199790128     -0.25107525396940      2.15596993394776
  O   1.23934678614954     -2.04567478597111      0.92842464647924
  C   -0.70619009761786      2.13537792762393      0.87607410396196
  N   -1.48471698417969      2.84993544006382      1.38957378683392
  N   0.56570599559022      2.03815374603164     -1.12889424535609
  O   1.29314666496663      3.02036793252271     -1.20816077078955
  O   -0.10031038959063      1.55633267419639     -2.03475562836348
