19
Coordinates from ORCA-job run
  C   -0.47905297009171     -0.02758794608714     -0.20673603201070
  C   -0.26064843481858     -0.10693869737309      1.15798886627382
  Cl  2.06377791370263      0.02969427592521     -0.84331057752296
  Cl  -3.14760835359955      0.17218398998622      1.82940115471308
  H   -1.61755685255930     -0.07818344269245      1.31155315339712
  C   -0.89632485597214     -1.23791941125664     -0.97522815753902
  H   -0.61433472827180     -2.15355007864177     -0.46305094560710
  H   -1.98914499840612     -1.21220478536010     -1.08918124362907
  H   -0.44007512209253     -1.21029871523221     -1.96517232583954
  C   -0.81535381266051      1.28826805813311     -0.82634924510262
  H   -0.73569918684504      1.22137359868364     -1.91124390615331
  H   -1.84955316785018      1.54749065417876     -0.55874661835862
  H   -0.14713727261059      2.07471943298565     -0.48124811664609
  N   0.20834272135042     -1.35519787468612      1.66473856399591
  H   0.30150412615512     -1.25919646172401      2.66771909107613
  H   1.13401026345885     -1.49582875913787      1.26100113237665
  N   0.15528798968539      1.04428496649650      1.91724822303191
  H   1.02759775838251      1.36742023829552      1.49937168369185
  H   -0.53701101695689      1.78135095750676      1.85322529985257
