12
Coordinates from ORCA-job run
  C   -0.28383163560976     -0.04093830168531     -0.34682379111659
  C   -0.42803523079197      0.21009210441956      1.13531476424294
  Cl  1.37564323301805     -0.57270088020048     -0.82697304030544
  H   -2.34870402382076     -1.28213852743243      2.50496919837068
  H   -1.24266623976760     -0.43323492255427      1.62042071706567
  H   -0.67523447715854      1.25796533436817      1.30970903349584
  H   0.51055643976539     -0.00853206456021      1.64349618718686
  N   -0.50802082922118      1.26409924840829     -1.15874591639538
  O   0.15187627867758      2.23083094566371     -0.80769431276384
  O   -1.30934742162351      1.23366863915453     -2.08603118566719
  C   -1.20789581458712     -1.04325644591212     -0.87880790255534
  N   -1.91066027888057     -1.87199512966946     -1.32552375155821
