10
Coordinates from ORCA-job run
  C   -0.25518028983100      0.06554817011040     -0.26573363234651
  C   -0.15501485573520      0.08506427575285      1.19700998924694
  Br  1.52022817388176     -0.23788483385735     -1.34078176056466
  F   -2.61737285709835     -0.45895324686114      1.20324259101106
  H   -1.42584592072110     -0.05763832664428      1.39069604785308
  H   -0.85433831464258     -0.77506292224812     -0.60748751699158
  H   0.34469549009497      0.97420405839187      1.58525665533865
  H   0.30122046923622     -0.83194983408289      1.57565801956715
  C   -0.78406048550312      1.30145940099705     -0.82790186702002
  N   -1.20190140968162      2.30350325844163     -1.27750852609409
