12
Coordinates from ORCA-job run
  C   0.58372548597839     -0.05503391594900     -0.02758518913160
  H   1.43249592168521      1.85927356950762     -0.59407235508573
  F   -1.14552440315303     -0.22110773785609      0.09461477362575
  H   2.49089038236230     -0.10161165133497      0.19644972363329
  C   0.61112502369360      1.45744362772412     -0.00444554362542
  H   0.69714829511176     -0.60906396633734      0.88064274028956
  H   0.73015358270947      1.81611632022833      1.02035785533576
  H   -0.34434839755828      1.82262633715592     -0.39443395790245
  C   0.72212197081527     -0.74859792082248     -1.36521038046373
  H   -0.21876303869867     -0.62732354009224     -1.91155747759966
  H   1.54696170319879     -0.34738528357716     -1.95028813244781
  H   0.90497347385523     -1.81536583864674     -1.21820205662799
