15
Coordinates from ORCA-job run
  C   -0.47141289974967      0.00983105891594     -0.19471378785280
  C   -0.34166831595416     -0.06412993433012      1.16740807226203
  Cl  2.00368644772336      0.01792085289371     -1.27226171784841
  Cl  -3.24752871833364     -0.07994067285720      1.85693618534089
  H   -1.79213578853648     -0.04864826426168      1.41553167858706
  H   -0.04400106686790      0.82452097133611      1.71604826725409
  C   -0.84362517817014     -1.21668391904635     -0.96781503057799
  H   -0.34904737267239     -2.09897659321947     -0.56187180692124
  H   -1.93234375744181     -1.35363343578696     -0.89643511506458
  H   -0.55851835821545     -1.11305448741897     -2.01230902941469
  C   -0.78939356633063      1.32444741767137     -0.83590442066131
  H   -0.49174504681001      1.32193133354906     -1.88199481938700
  H   -1.87370465516791      1.49317684055074     -0.76496478338290
  H   -0.27012998835063      2.14005237309905     -0.33278267196310
  H   -0.08618173512253     -1.01691354109523      1.62129897962996
