14
Coordinates from ORCA-job run
  C   -0.22688803835991     -0.12877918473779     -0.49001350872491
  C   -0.30159383950756     -0.07447530473784      1.05895356818265
  Cl  1.24839679163347     -0.82708936631901     -1.19475942798927
  F   -2.47585089760892     -0.02318220897085      2.40174320695293
  H   -1.32540486584697     -0.43728666897832      1.42076361937418
  H   -1.06241397580747     -0.69038967173899     -0.90048232483954
  N   -0.40718556490160      1.26859095118817     -1.02562715064125
  O   0.57212940159267      1.98875286830707     -1.13961049228867
  O   -1.56991788696653      1.57825992702320     -1.26363068749057
  N   -0.34786466947326      1.28673704847504      1.57169460787369
  H   0.50438389424431      1.54451167394612      2.05037678461256
  H   -1.15427081385737      1.22351449243936      2.20715998026630
  C   0.72984022392811     -0.89794381275761      1.67529447083216
  N   1.54840024093102     -1.53265074313857      2.23337735387973
