16
Coordinates from ORCA-job run
  C   -0.23703244995827      0.04483299123379     -0.27688683248427
  C   -0.23236815827833     -0.09365217174898      1.16095069960089
  Cl  1.52472317505368      0.21681286291329     -1.10426706304513
  F   -2.64431646296261      0.65508472805129      1.48866788797015
  H   -1.63245864702701      0.16402848583399      1.41621249207506
  H   0.12801720263774      0.85499129147679      1.57596955916680
  N   -0.96630703080936      1.14765954400309     -0.82927036952293
  H   -0.38334157523231      1.96991795234466     -0.74832706757206
  H   -1.78598442603189      1.26067078030153     -0.23317307430089
  C   0.45136130945735     -1.29076479267158      1.78887884119976
  H   1.48082923867160     -1.42833629710176      1.43089620147343
  H   0.48312203205757     -1.16136526577714      2.87574900792280
  H   -0.08343295882621     -2.22289118399403      1.59035417629218
  N   -0.77421473350565     -1.24930275363835     -0.91232577925642
  O   -1.94030266777851     -1.22330870190286     -1.29369612500505
  O   -0.05642384746780     -2.24575746932373     -0.91337255451430
