14
Coordinates from ORCA-job run
  C   0.63767823308472      0.00038506439803     -0.28079197188543
  H   0.66819514511684      1.47344784433927     -1.77284705138152
  F   -0.91964854842811     -0.08592806507147     -1.17826416573780
  F   2.08314276291309      0.01358932390287      0.83983927857079
  C   0.82710987076410      1.45173791878564     -0.69468586162913
  H   1.85227467568100      1.73709613264253     -0.46932239129167
  N   1.22881704889330     -1.03132030304299     -1.08257502562177
  H   0.47193991710846     -1.61283434724431     -1.41346284073615
  H   1.85650160970082     -1.53833996470691     -0.47562515050061
  C   -0.12765196705097     -0.30968965687298      0.92870590150342
  N   -0.75887443836759     -0.56147576827797      1.88764513623279
  N   -0.09897407081432      2.38799476336468     -0.06845972064824
  H   0.04804307683338      2.34790564716872      0.93466438628666
  H   -1.02205331543479      2.00356141061488     -0.24057052316138
