11
Coordinates from ORCA-job run
  C   -0.11289027590914     -0.12728695312333     -0.33406690919388
  C   -0.20954950254948      0.06480963053874      1.19879156135458
  Br  1.32286819649360     -1.34089813498285     -0.90357321292231
  F   -1.60841488609253     -1.90620531230336      0.38981537023967
  H   -1.22488071677790     -0.22412305747613      1.46897675572456
  H   -0.02004059425811      1.11604756761677      1.44564690293247
  C   -1.40208666689802     -0.55724102324424     -0.91688949365601
  N   -2.21550688890552     -0.31956236603716     -1.74877714428754
  C   0.68310205417732     -0.74631823899083      2.01755133993174
  N   1.39201139471047     -1.32646589097155      2.75140491898405
  H   0.17800788600930      0.81487377897397     -0.80311008910732
