14
Coordinates from ORCA-job run
  C   0.71937152255468     -0.20139017105897     -0.05118282505359
  H   1.74889229501992      1.28846385100073     -1.23376969049093
  F   -0.85188538255622     -0.25591661193578     -0.64702877525850
  H   2.55577032109769     -0.18742971382315      0.29375762085740
  C   1.07695863467958      1.23074578821197     -0.38383498029982
  H   1.05633974653846     -0.96667552834495     -0.72419684390694
  H   1.48024519230681      1.76246430924915      0.47209379711481
  C   0.32683010777714     -0.54397547337767      1.37129611596133
  H   1.16472855570853     -0.51351854360753      2.06166865733777
  H   -0.44336264264644      0.16487372405395      1.68334620454645
  H   -0.12694599429542     -1.53753566981633      1.38461381913767
  N   -0.14732944174344      2.05412034169951     -0.78315143172075
  O   -0.83748966531075      2.51633384714611      0.12548937646021
  O   -0.34671324913055      2.26162985060294     -1.97867104468513
