15
Coordinates from ORCA-job run
  C   -0.22350552983849      0.02619459349869     -0.36385156883146
  C   -0.00096640764332      0.06761764901263      1.11155067626742
  Br  1.56527474257117     -0.05919158993835     -1.40164607188847
  F   -2.52309932983671     -0.03952600589987      1.45775079266592
  H   -1.38404329822273      0.04476963898569      1.45907794906903
  H   0.48323562773217      0.98702694628589      1.44949463384172
  N   -0.96762466192200     -1.13378137800610     -0.82397065254852
  H   -1.82710696305637     -1.09363898808661     -0.27306969927901
  H   -0.46971930203301     -1.96553421351666     -0.51845544789200
  C   0.62181981119508     -1.10020027491454      1.65534340489754
  N   1.07612735643725     -2.09214590367746      2.10542944237926
  C   -0.90788135109503      1.28899940921611     -0.85283284979534
  H   -1.07039793833258      1.23015531718569     -1.92936635768341
  H   -1.86445604709539      1.35075573985348     -0.32873933753022
  H   -0.30947670886003      2.17193906000141     -0.61978491367244
