15
Coordinates from ORCA-job run
  C   -0.20383005266326     -0.02170244920985     -0.35836691896686
  C   -0.18463622472964      0.15985259444474      1.16401389002988
  Br  1.64770654709053     -0.20920538444576     -1.02457425501441
  F   -2.13642094601781     -2.08008243358291      1.31670470460439
  H   -1.21903460190241      0.45390346489777      1.41232668747570
  H   0.49111301944666      0.98329882408588      1.40938994567550
  N   -0.98457225377121     -1.08140769974647     -0.86607196595296
  H   -1.94694767326957     -0.89244195567908     -0.59175311446232
  H   -0.80520615568168     -1.88408382948488     -0.26085136185150
  N   -0.72412416258817      1.30396038030006     -0.93262198383843
  O   -0.07722669824573      2.31742552855313     -0.68297493847440
  O   -1.79671395148714      1.28507899722656     -1.52972472291083
  N   0.20746584552856     -1.08416561788496      1.78512087819523
  H   -0.67945815729602     -1.64758550045308      1.80452426628716
  H   0.51597546558690     -0.89161491902114      2.72941888920382
