18
Coordinates from ORCA-job run
  C   -0.07952609207757     -0.00027870192806     -0.41546598292366
  C   -0.21194651196218      0.07519097437510      1.09955127348007
  Cl  1.63315768557803     -0.27314055029723     -1.02496866018592
  H   -2.83588811290095     -0.72838888768554      1.40382630232734
  H   -1.33210093755603      0.03851667057034      1.30438838993104
  C   -0.94963377768855     -1.13971638825853     -0.92790345753487
  H   -0.48089061331166     -2.09273836506376     -0.67828107779524
  H   -1.91962094860607     -1.08379665517977     -0.40303063040833
  H   -1.05903590533601     -1.07473845819756     -2.01198616100431
  C   -0.51143274886139      1.26749350397714     -1.00954091283639
  N   -0.87017445434145      2.27344402347490     -1.50015664447755
  C   0.39470128041378     -1.07988847611323      1.86389137188624
  H   1.44415132762181     -1.24321734015838      1.61219941267275
  H   0.29949678293045     -0.87395350808869      2.93322686063966
  H   -0.20212446859598     -1.97147005216525      1.66252632077024
  N   0.33725307663950      1.35452971731371      1.63634521564649
  O   1.50677327409716      1.64343080457628      1.36985935162781
  O   -0.40070885604293      2.03083168884855      2.35252902818461
