12
Coordinates from ORCA-job run
  C   -0.32331898818438      0.06037258704050      0.16814811562526
  C   -0.00520936360100      0.10987163081025      1.49878467215844
  F   0.30103432314031     -0.75970670588959     -3.02848353750327
  F   -2.83812851721794     -0.74687784983896      1.82323855661909
  H   -1.98651926919254     -0.42614122056667      1.61505427412410
  H   0.15301253397054      1.05030907123557      2.01883149600080
  H   0.19675738024538     -0.82451343099185      2.01438918090555
  N   -0.44236437267101     -1.04595986459115     -0.61706877539004
  H   0.03080695638556     -0.85462062436529     -2.07789719629735
  H   -1.39810589207093     -1.38475086143720     -0.65201210914518
  C   -0.47863950384913      1.39722740995143     -0.45496658229829
  N   -0.62652528695482      2.43902985864285     -0.98486809479915
