13
Coordinates from ORCA-job run
  C   -0.19190348310711      0.05436250081772     -0.30046515660313
  C   -0.12672091324457      0.06019586985010      1.16522182086768
  F   1.02952029046977     -0.23119818136161     -1.01818180148107
  H   -2.39068248425596     -0.82448979475772      1.56560778891132
  H   -1.42228098558164     -0.25165070974152      1.44448280495257
  H   -0.88188685452273     -0.73842008327357     -0.63273742192167
  C   -0.66310835359322      1.34583062305254     -0.82450633610231
  N   -1.02957486597002      2.37895768568679     -1.24672921770564
  C   0.54560912301949     -1.16584685901400      1.74270433869195
  H   1.56121615290309     -1.34953564861436      1.37359915769647
  H   0.58628218667111     -1.09000506564343      2.83516851652078
  H   -0.07032600562312     -2.04786524379816      1.51357997855035
  H   0.21686619283491      1.00904490679720      1.58526552762270
