18
Coordinates from ORCA-job run
  C   -0.25347338339878      0.01091561180546     -0.29619774139880
  C   -0.16317461815707      0.03075937377520      1.16275303065027
  Cl  1.57540900051617     -0.06907752614264     -1.17391903744272
  H   -2.52720874871134     -0.75597117459811      1.42842725127908
  H   -1.38163980195380     -0.15462489631667      1.39533216444377
  N   -0.99264726814269     -1.07871425836782     -0.85977728059458
  H   -1.82536537740966     -1.14994560667327     -0.22952729682051
  H   -0.45577460020660     -1.92560330931765     -0.70790597821262
  C   0.38796882517505      1.29632725969708      1.78162712560237
  H   -0.11361718770928      2.18972128476253      1.40106982827223
  H   0.24231699887940      1.27224260213673      2.86693393641400
  H   1.46288717037311      1.40123825163773      1.58382035696292
  C   0.42836326566367     -1.23104713002828      1.75904715853418
  H   1.44857729969494     -1.41254344048885      1.40200084097186
  H   0.44881087635178     -1.14104282600466      2.84977701416233
  H   -0.19876728994991     -2.09727773988055      1.52974474550569
  C   -0.76651259630756      1.27199956841464     -0.84065355746593
  N   -1.21057256470744      2.28262395558914     -1.24634256086354
