15
Coordinates from ORCA-job run
  C   -0.10848649944846      0.06498796649657     -0.35137178182260
  C   -0.11184256339696      0.04800188168981      1.10634797593704
  F   1.21052777155321     -0.06009827299171     -0.99968880252810
  H   -2.55604847052684     -0.40443283375068      1.41175692413411
  H   -1.57149747888853     -0.13588455172614      1.32878851476396
  H   -0.63627086569479     -0.82408819862219     -0.73194096214748
  H   0.23799148286215      0.98995411177127      1.54771602476939
  C   -0.73581810343034      1.31353993835790     -0.93366393240322
  H   -0.67911779624776      1.31387667807244     -2.02661101765901
  H   -1.78485638484874      1.35915138691768     -0.62446692463974
  H   -0.21549548219189      2.19975810651965     -0.55853492068811
  C   0.47083079635537     -1.19104228371477      1.74397975061560
  H   1.49671493008208     -1.44177774392820      1.43292864279555
  H   0.47064920065840     -1.10271676688072      2.83820212300002
  H   -0.16280053683689     -2.06091941821090      1.50469838587260
