17
Coordinates from ORCA-job run
  C   -0.12990281847118      0.00211371606438     -0.33181953098076
  C   -0.07781356460599     -0.04049360335596      1.13212473291288
  F   1.18745390950772      0.07317624933876     -0.97285671923016
  H   -2.46077292744868      0.44865641418567      1.54929942280945
  H   -1.48160931867415      0.10010933713393      1.41403576801386
  C   -0.69801615425300     -1.26559116205793     -0.85565114087718
  N   -1.16570379772594     -2.26488309980677     -1.25960574913716
  C   0.42334079975115      1.23900032233382      1.76199659455970
  H   -0.37058479130056      2.00246036115233      1.77123381634993
  H   0.67564129614239      1.01990397870935      2.80212012635412
  H   1.31537967138314      1.67100132077599      1.28207096723824
  N   0.50739484702786     -1.24583154206869      1.70681682805711
  H   1.30725487889420     -1.56344216773615      1.16434372584570
  H   -0.17864167084738     -1.99318322448442      1.69446284956116
  N   -0.86923200659500      1.11618416512206     -0.89163655733529
  H   -0.32456929158754      1.94395287104490     -0.67153159598538
  H   -1.72460906119703      1.17994606364868     -0.32979353815625
