11
Coordinates from ORCA-job run
  C   -0.30139080121214      0.02096780070151     -0.35165171026575
  C   -0.14753949731876      0.05134586524591      1.03972436377747
  Cl  1.65911773087546      0.26693994966563     -1.52031193479960
  Cl  -2.71499873954777     -0.28565136615355      2.47200085657979
  H   -1.50694194729952     -0.12493282617982      1.62699256310885
  H   0.09151863028328      1.01682851985661      1.47725522529202
  C   -0.63563810855763     -1.25189149586872     -0.94888584256922
  N   -0.95713160315287     -2.30058045059351     -1.37592788103999
  C   -0.95453147581485      1.15546209814571     -0.96427815225728
  N   -1.49214195356657      2.10603596322554     -1.40310929915259
  H   0.33505776531137     -0.81158405804534      1.49031181132631
