20
Coordinates from ORCA-job run
  C   -0.17574640909137     -0.01023692499986     -0.38118520309274
  C   -0.16424483623471      0.08715266849114      1.09215733761670
  Cl  1.54691343697341     -0.03126370319358     -1.18760668156369
  H   -2.59231751027936     -0.37362172629067      1.80560528010141
  H   -1.34425955170580      0.01962957232842      1.39485679762105
  C   -0.91384494802341     -1.22225823152488     -0.88909388343522
  H   -0.31844585771946     -2.11300128896058     -0.69273965737303
  H   -1.86126807494021     -1.28348829174274     -0.33849209009086
  H   -1.09825082075096     -1.15065204676140     -1.96132912093543
  C   0.45114690261412      1.33496318163568      1.69555501453964
  H   -0.04515349622725      2.24878754182105      1.36546196233476
  H   0.33946248736830      1.27796746181346      2.78328733754234
  H   1.51863918107485      1.42803193821317      1.46011372038540
  C   0.37172315832250     -1.18214650183676      1.73662188971861
  H   1.37296587785818     -1.45111712853807      1.37878503305779
  H   0.41747458462532     -1.03192935267703      2.81926744968259
  H   -0.31627659311608     -2.01604252306008      1.57387870685160
  N   -0.83286724827842      1.24190037747200     -0.95079502126739
  O   -0.19074260676192      2.28889491218662     -0.97324842445561
  O   -2.01097767570772      1.13440006562416     -1.29148044723790
