15
Coordinates from ORCA-job run
  C   -0.26409319630677     -0.00090816476711     -0.25396340636899
  C   -0.01838385646591      0.11567185430431      1.14659962405663
  Br  1.71685697758831     -0.26976556094020     -1.39328766265886
  F   -2.50093936658612     -0.26620480694565      1.59012431098479
  H   -1.36251307560393      0.10515594560507      1.40917777968046
  H   -0.56365497721664      0.93634359569414     -0.72666736834319
  N   -1.03521028166745     -1.11066665718424     -0.74271001599245
  H   -1.87848625014242     -1.09336664293781     -0.16485413485794
  H   -0.52812102804688     -1.95968884234998     -0.51820797683340
  N   0.41081908037332     -1.04717435887479      1.88593206865348
  H   1.24147711307203     -1.43249185106962      1.43787265203816
  H   -0.33280877512944     -1.73315855786398      1.87726726754761
  N   0.77246244874651      1.26175447514056      1.54979230486443
  H   0.44596470517191      1.56670270588004      2.46001857916085
  H   0.63460048221348      2.02071686630926      0.89206597806841
