15
Coordinates from ORCA-job run
  C   -0.06981243995712      0.11780298844737     -0.30765895008523
  C   -0.25625710094095     -0.05662677896264      1.13418934798304
  F   1.29697436285863      0.41385145614162     -0.71791837820089
  H   -2.75061650450045      0.10001749499540      1.13249285372269
  H   -1.70524849116064     -0.05829805197485      1.19968834144299
  H   -0.05811623798669      0.90101063234793      1.63527444320635
  C   -0.37813309350319     -1.14207749916658     -1.03182431364573
  N   -0.61852307843857     -2.15163075283009     -1.58206498758184
  C   0.44807244145119     -1.23098625719842      1.78092435380683
  H   0.08183974598398     -2.17924164963491      1.37002695378819
  H   1.54253292987872     -1.22777753196616      1.66229357217147
  H   0.23554463540497     -1.25188824450775      2.85623215593254
  N   -0.86519021687571      1.18737112580291     -0.89071519617045
  H   -1.81297102932186      1.03248806608042     -0.52963179710192
  H   -0.53907592289230      2.03506500242576     -0.43427839926803
