13
Coordinates from ORCA-job run
  C   0.93515165446728     -0.09430904858663      0.02365886577181
  H   1.78152074576746      1.86190824569287      0.43324445796893
  F   -1.29214289117225      0.11860090843906     -0.23663092451678
  Br  3.02240540611933     -0.34613342167858     -0.45095617278668
  C   0.82578729252852      1.43802980510367      0.11315467171296
  H   0.59210702745506      1.82919772478196     -0.87786905156007
  C   0.27194763146437     -0.70798266226611     -1.13043803229380
  N   0.17822216242590     -1.35507304411631     -2.11543133171238
  N   0.70860334543391     -0.75245090154762      1.25709676008674
  H   1.56096651650029     -0.91398838857631      1.77056523489647
  H   0.17822051447004     -1.59939345520701      1.12441573261362
  C   -0.18977799120636      1.89153377908884      1.06419783879099
  N   -0.84284141425354      2.42574045887215      1.88063195102815
