16
Coordinates from ORCA-job run
  C   0.13479431793494     -0.06090363905245     -0.10253531185368
  H   1.62455117178963      1.30914145534913     -0.12115537347359
  Cl  -1.66516473631125     -0.22757278471198     -0.35129691609468
  H   2.49579235612967     -0.21111154785971      0.17554948421028
  C   0.51595930647438      1.40565316964227     -0.12250390194256
  H   0.37515861006540     -0.53188030158965      0.83846488691031
  N   0.80622595249960     -0.87479532687048     -1.16407347734814
  O   1.04481170851840     -0.32726337091135     -2.25009015677814
  O   0.75612840213867     -2.09772491381590     -0.99510798245844
  N   0.20025253802066      2.00487905033001      1.20812703206335
  O   0.10051112849578      3.23456523695500      1.26197124827966
  O   0.13915795918532      1.26824439852774      2.19354619723223
  C   -0.03661858432182      2.27433129912253     -1.23112696360928
  H   0.11343332027906      1.75776505127202     -2.17602141610023
  H   -1.10025053609458      2.47264620967317     -1.08972123780050
  H   0.49140708519618      3.22696601393970     -1.24879611123655
