15
Coordinates from ORCA-job run
  C   0.72614569020798     -0.04403995751809     -0.03158508738852
  H   1.60905400696534      1.86730045563552     -0.29835469397081
  F   -1.30660488174819     -0.10763130230591     -0.13609077748754
  Cl  2.82743650648770     -0.17761400502102      0.66887240620058
  C   0.61139165011780      1.46658156290877     -0.09845253758652
  H   0.45209276302651     -0.54068135758626      0.88025353463465
  N   0.84084543489425     -0.71781129135540     -1.26253276477824
  H   -0.12664815462059     -0.71696904596262     -1.58475162022037
  H   1.12015811440026     -1.67390105500670     -1.08124677013664
  C   0.08094666706524      2.01475979179508      1.22249543636186
  H   -0.91039419209701      1.59147065784667      1.37202928545677
  H   0.75100131949796      1.70459597377002      2.02771849947174
  H   0.03096148055734      3.10668325857962      1.20719838310512
  C   -0.23048603964194      1.89973239248654     -1.21970101159151
  N   -0.80469036511267      2.38841392173378     -2.12000228207055
