13
Coordinates from ORCA-job run
  C   -0.09132012104884      0.06662771485154     -0.43688331603628
  C   -0.21468411054911      0.00291543599885      1.02138744494535
  F   1.27678487518147      0.01463622621247     -0.92295550394928
  H   -2.39492093886582     -0.19960260142759      2.17177779540128
  H   -1.62433629668775      0.00716948116194      1.59092312395661
  H   0.27700460964763      0.87680840924127      1.49186905529832
  N   -0.62377382055325      1.28607150529184     -1.04982918783079
  H   -0.18373741650183      2.05498032096622     -0.54924364777482
  H   -1.59916791447470      1.31483187115770     -0.76637811396929
  N   0.14647898807256     -1.29093780571546      1.57694003029776
  H   -0.50717304756558     -1.48809924200978      2.34056874253486
  H   1.08299954884030     -1.30210484414301      1.96340837445086
  H   -0.56763435549509     -0.80483647158598     -0.89886479732459
