18
Coordinates from ORCA-job run
  C   -0.13646402645732      0.05502207095295     -0.35439376669662
  C   -0.17766145321944      0.05794484448488      1.19427135831055
  Cl  1.63346961932512      0.13520438815581     -0.86798578579183
  F   -2.73402416043511     -0.71912607398460      0.66230755518166
  H   -1.28124596029912      0.02772638524234      1.35051618834841
  N   -0.71013337775323     -1.12913187016917     -0.92713818832003
  H   -1.65480123601962     -1.14565403784565     -0.45177277337832
  H   -0.18594476834325     -1.93524932858439     -0.60136450627125
  C   -0.88579829648673      1.28221641835054     -0.89118819111279
  H   -0.23027435429252      1.93568715358834     -1.46718968925249
  H   -1.69369254990280      0.92400432860371     -1.52734504906849
  H   -1.32974207337101      1.85373588781129     -0.07563072796527
  C   0.41454843274622      1.26544711675685      1.75232916338290
  N   0.88926039027612      2.23325762407048      2.22279533121260
  C   0.39577479557168     -1.19739898038109      1.84663041332172
  H   -0.26503205574441     -2.03181533500178      1.61077774000185
  H   1.41223230497605     -1.40993618167690      1.50483663315077
  H   0.40977876942938     -1.08395441037362      2.93345429494666
