14
Coordinates from ORCA-job run
  C   -0.45737614563549      0.18826998649259     -0.31951807888489
  C   0.34928378343352      0.08696765298993      0.76999044162310
  F   1.73766112263537     -1.61433560966086     -0.74599170607825
  Br  -3.29548525923392     -0.16442945800241      1.97838801515213
  H   -1.96941681603586     -0.12617666806957      1.40623592064133
  H   -0.78344114756065      1.19395859679809     -0.58580666875461
  C   0.67204523942694      1.26819876712930      1.51951176908273
  N   0.92964455153504      2.24405116184998      2.12516476141634
  C   0.81828544050561     -1.15645905325900      1.32943766449665
  N   1.01132652852368     -2.00945745395551      2.12094534946591
  C   -0.74841783399444     -0.94990471174395     -1.21242140848492
  H   -1.22209226263654     -1.78073710900837     -0.67942984287881
  H   -1.36113401830279     -0.65828592600093     -2.06688543222751
  H   0.29999681733954     -1.33101017555926     -1.43391078456919
