14
Coordinates from ORCA-job run
  C   0.94483265466546      0.32987475843563     -0.01178339745780
  H   1.38103558232883      2.35226718866814     -0.07901167673298
  F   -1.36357397018959     -0.05424192016414      0.09507890497072
  Br  3.06932904543297     -2.69183919299216      0.09313749982226
  C   0.47006033468815      1.73358667953448     -0.13611361066132
  H   1.62101587042893      0.09147483020272      0.80966550987563
  H   -0.12099083427619      1.93052438809175      0.75776418464324
  N   0.87297166175746     -0.58798351509610     -0.90705047231179
  H   0.02999869591567     -0.56102401101870     -1.46875541629859
  H   1.38686358858460     -1.46776998341937     -0.71547864440588
  C   -0.34668972434058      2.04625375371616     -1.37858349704926
  H   0.19296187079642      1.77362607207668     -2.29173341581661
  H   -1.25960353912300      1.46046574702312     -1.28254313125907
  H   -0.57234123666913      3.11488520494178     -1.43102283731854
