16
Coordinates from ORCA-job run
  C   -0.08239420354719     -0.11492884920176     -0.29633365763831
  C   -0.17006230657977      0.02560943199027      1.15724809916454
  F   1.22434938715238     -0.20964640815741     -0.84072120378976
  H   -2.58611076982233     -0.50794276157631      1.47586428114785
  H   -1.56790980436804     -0.17630372495936      1.39055314600764
  H   0.18041926117641     -0.91343004700539      1.60435592127425
  N   -0.63452975370139      1.16642492924275     -0.93561426518655
  O   0.14040947680964      2.11184655228941     -1.07537744550687
  O   -1.83156458406158      1.19120985068454     -1.20674380296370
  C   0.45548700074992      1.24961748255535      1.79429727925127
  H   -0.08871382436667      2.16206743925625      1.52700271259112
  H   0.39843622862202      1.15853175995448      2.88519341918202
  H   1.50861394020797      1.41788954933426      1.52712604699339
  N   -0.82288234744659     -1.20836874531685     -0.86229810290760
  H   -1.73215063709242     -1.19778375993228     -0.39317674415022
  H   -0.34598706373238     -2.04764269915795     -0.55101568346908
