16
Coordinates from ORCA-job run
  C   -0.26607175531907      0.12918343826945     -0.36964250211196
  C   -0.04872368167735      0.19909932010302      1.18835006809885
  Cl  1.08941757684644      1.02698450949521     -1.21478008494478
  F   -2.66182697537493     -0.88080981112092      0.61278604332093
  H   -0.62100742791096      1.07766287253057      1.52782694209565
  C   -0.29720862554657     -1.28899043285799     -0.90973020619064
  H   0.58978116266146     -1.83218566740446     -0.58291150852993
  H   -1.20929602787661     -1.73205406323634     -0.50946232808842
  H   -0.33309235929055     -1.25402927561946     -2.00089082246605
  C   -1.46760348917890      0.88278273807986     -0.75036448951704
  N   -2.27406687818983      1.62585047967086     -1.17375200425167
  N   -0.45403566087351     -1.04693145896534      1.82111192043593
  H   -1.46097661575417     -1.14764137061752      1.50347031263491
  H   -0.43318415029022     -0.89156007003166      2.82448190554452
  C   1.35722213098553      0.45666313261488      1.54697509458836
  N   2.43868277678923      0.68480565908985      1.94495165938132
