19
Coordinates from ORCA-job run
  C   -0.09222306521784      0.01349219811470     -0.41019926466348
  C   -0.24477658778941     -0.06116785514959      1.05370999238562
  F   1.27513971940800     -0.31220370037919     -0.91627601509165
  H   -3.11739776934870     -0.68167461543771      2.87127195375988
  H   -2.53888538780853     -0.45203051420188      2.45799629670208
  N   -0.93965055406553     -0.98932405552593     -1.05252433218797
  H   -1.28378860067903     -1.61088832427996     -0.33309851063609
  H   -0.35951427576526     -1.51248944940573     -1.69814370812698
  C   -0.35415683835565      1.37589269561527     -1.02646095804842
  H   -0.31534467244485      1.28036371928951     -2.11448284165939
  H   -1.34927634459269      1.71474045289424     -0.73535492316890
  H   0.39674574821361      2.09759936427347     -0.70307923967841
  C   0.53586079763101     -1.20687597437782      1.67472816697432
  H   1.62746328843605     -1.10827981856934      1.55536616436311
  H   0.31652982122096     -1.29790593210438      2.74582469149640
  H   0.24266916697346     -2.15421951803185      1.21076491911051
  N   0.27177052427133      1.18009101839994      1.68643304431765
  O   1.45454433172391      1.52713202522460      1.51185136548422
  O   -0.48772930181087      1.84485828365165      2.40705319866747
