10
Coordinates from ORCA-job run
  C   0.67832453691156     -0.02367435710067     -0.01781536940534
  H   1.29880209193695      1.97494326418025     -0.52766512424792
  F   -1.20040496644274     -0.16966395041621     -0.80637879284298
  Br  2.79411832064333     -0.21121203194810      0.76928959467032
  C   0.48992623280899      1.47413205708058      0.00866829470220
  H   0.88239727699999     -0.47953089124171     -0.96598093480273
  H   0.21665991238826     -0.61992896598664      0.74476401659346
  H   -0.46195443245973      1.62158204681577     -0.50515455894437
  C   0.41525988502199      2.04494808036902      1.35028543096517
  N   0.32034114219144      2.53188474824768      2.41421744331219
