14
Coordinates from ORCA-job run
  C   0.36479723374990      0.00689243297704     -0.09831274729932
  H   1.69285724465935      1.56281490225864     -0.56015991718283
  F   -1.22418437451183     -0.00343528263787     -0.79956248653214
  F   1.93198929763281     -0.22158605079568      0.66928746745320
  C   0.66480944230065      1.50517756113388     -0.20493835127301
  H   -0.06014337677395     -0.47094573258748      0.76268573109979
  N   0.83212722396254     -0.87319630533627     -1.18921611606431
  O   1.37579439586758     -0.34567547515787     -2.15492887330836
  O   0.63783607546065     -2.07514838462543     -1.05482018798184
  C   0.65169928506891      2.02604918135513      1.17667305025331
  N   0.57633294466007      2.55130285160264      2.22498651868910
  N   -0.21215745559052      2.27920273466949     -1.08340756842156
  H   -0.35190554097190      3.20320053175929     -0.69675925508415
  H   -1.09136239551426      1.77585703538449     -1.11271726434791
