14
Coordinates from ORCA-job run
  C   -0.22501688354408     -0.06946485435331     -0.34696608580207
  C   -0.07021735945481     -0.18756757896367      1.15297201908239
  Cl  1.20726381796149      0.51489756465142     -1.22909365201064
  H   -2.17386519191536      0.95476734644313      1.44249307195700
  H   -1.23261051567130     -0.02239333790314      1.45085412554956
  H   -1.03764188957210      0.65912121912431     -0.49549910211959
  N   -0.70846428507556     -1.36960345854224     -0.95112299039297
  O   -0.21828429960902     -1.79473148563040     -1.99235007259899
  O   -1.63223255258749     -1.89004792516113     -0.33208738680299
  C   0.56267276370717     -1.41876179699932      1.57325797720679
  N   1.04916952411248     -2.42957092803053      1.93357687709435
  N   0.49184930080919      0.98205278593057      1.78524235897039
  H   1.21734451938108      1.40168130628620      1.21771383771647
  H   -0.30423694854172      1.62729114314810      1.85906902215030
