15
Coordinates from ORCA-job run
  C   -0.09461365229033      0.01816086015375     -0.40786731687980
  C   -0.03341223598727      0.04247006677556      1.05401774416928
  F   1.21422495352886     -0.06526718895579     -1.07939862573384
  H   -2.33551216526032     -0.32293928780891      1.86419199935334
  H   -1.33407403796874     -0.03113325007256      1.47139839409146
  C   -0.77110988857293     -1.20975938022085     -0.87474532955269
  N   -1.31198425212607     -2.17895408934343     -1.26021114691691
  C   -0.77099777191263      1.24950448648404     -0.97786645612016
  H   -0.74485899449776      1.23984979271318     -2.06999156359730
  H   -1.80701359581098      1.28359226173136     -0.62920755427401
  H   -0.24312029559920      2.13500741310818     -0.61699612058354
  N   0.52632296515638     -1.12263225456525      1.71133742272231
  H   1.16305585286009     -1.62958364634331      1.10819332921288
  H   -0.24673404813850     -1.74316887143995      1.95398899650494
  H   0.39263716661938      0.98789308778399      1.41051622760404
