17
Coordinates from ORCA-job run
  C   -0.61347300838633     -0.26288903567566     -0.39030490943314
  C   -0.03879064773229     -0.32604746243603      0.90037041287843
  Br  1.63632783113190      2.95847649319460      0.60026636150714
  H   -1.87929218735255      1.05802081193368      1.15754519386243
  H   -1.13508040748383      0.29600321790172      1.40334974888635
  H   0.63499466280780      0.50946880307040      1.11516493233865
  N   -0.95717533850408      0.96736344011113     -0.83971058635440
  H   -0.22898418313578      1.63360975416897     -0.53524001060892
  H   -1.75533732707992      1.23788002992684      0.08118585054530
  C   0.28275607955998     -1.62766304432993      1.60080561763879
  H   -0.55285175791034     -2.33150748040107      1.56972082487583
  H   1.15296806865805     -2.11294871011930      1.14790741592799
  H   0.52398563714332     -1.43992257400411      2.65001373656694
  C   -1.48498647237042     -1.38510872017487     -0.87397646431986
  H   -1.00917906878612     -2.36506826238285     -0.78783049027447
  H   -2.40785575743276     -1.40202791415921     -0.26927618005213
  H   -1.76994612312664     -1.20576934662431     -1.91110145398492
