14
Coordinates from ORCA-job run
  C   0.42466562906720     -0.10020402493945     -0.02021104473555
  H   1.57982181525764      1.70968115208763      0.26745127399644
  Cl  -1.60865094364357     -0.26930356462148      0.15092100533801
  H   2.31441108527434     -0.14295170404733     -0.55244627180319
  C   0.56490801554240      1.41056494700871      0.03273814640362
  H   -0.11330448004465      1.78311713498531      0.79968631296143
  C   0.74241143301985     -0.87265309749955     -1.20285761026666
  N   0.62475449530394     -1.66334783045719     -2.07965528577307
  N   0.80163939668059     -0.65738464551689      1.27457593427447
  H   1.77014308219356     -0.93933929956452      1.17740744278851
  H   0.22579104555913     -1.47860840173644      1.42630327849719
  N   0.21625064853925      2.15117917048891     -1.21447263912702
  O   0.36931189505946      3.37289038809703     -1.14980476496300
  O   -0.18364311780914      1.54399977571529     -2.19981577759119
