16
Coordinates from ORCA-job run
  C   -0.08175055030663      0.07344182079321     -0.34057522234241
  C   -0.17612411748424      0.26546894226164      1.17492569054941
  F   1.21377352577498      0.06473556574134     -0.78936843820111
  H   -2.38344377580924     -1.11870758830115      2.36880127102166
  H   -1.24750668948689      0.46144112086460      1.38929431768264
  C   -0.71846104589282     -1.16820357645496     -0.80204389302456
  N   -1.11615138308257     -2.19801307140732     -1.20242979709691
  N   -0.74382989774526      1.23739509495517     -1.10046440018502
  O   -0.43782973181407      2.36801932590666     -0.74061977242834
  O   -1.50556449115651      0.96328346157210     -2.02493049933741
  N   0.11791906884659     -0.94269789099065      1.89058417750818
  H   0.62353054609102     -1.62382347386414      1.33736102828629
  H   -0.84612031461582     -1.30043435315491      2.17499167941311
  N   0.73200217784241      1.33993574921146      1.58426135753751
  H   0.99387821188566      1.07991869943654      2.52675609037376
  H   0.23921846695338      2.22378017343041      1.61151641024320
