16
Coordinates from ORCA-job run
  C   0.12237622248994     -0.10353532490761      0.03910778168604
  H   1.60922185721602      1.27797759684319      0.09626540325810
  Br  -1.89549227611542     -0.27964904281415      0.02872931655024
  F   2.99981255022023      0.21711490391262      0.16517964440472
  C   0.50332307455388      1.36655767872988     -0.00152717879933
  H   0.09046054141344      1.82856919627785      0.90186770568943
  C   0.55368320899115     -0.79347547693436     -1.17775306847989
  N   0.82636629444007     -1.36892319238205     -2.16555251979159
  C   0.67502530647896     -0.79312460035040      1.27166017440266
  H   1.76552959575540     -0.61949088752819      1.16546256628811
  H   0.27533304833159     -0.30923697264991      2.16723089348217
  H   0.41591640875498     -1.85415767629709      1.28586064750191
  C   0.07551038361375      2.11654004914525     -1.26818067491987
  H   -0.44963701623779      1.46645798519259     -1.97279663156571
  H   -0.59689433566791      2.94906754558952     -1.04282227838517
  H   0.94965513576168      2.51507821817284     -1.78851178132180
