13
Coordinates from ORCA-job run
  C   0.45873280060057     -0.01476217807378     -0.04391408214711
  H   1.61948210940062      1.69317382027075     -0.48654174307292
  Cl  -1.43958933959086     -0.50933057789053     -0.71432370407786
  H   2.34748703813632      0.05131717615407      0.91836149084984
  C   0.60009961105279      1.50543640009279     -0.14486085858269
  H   1.04476263375257     -0.60208461626175     -0.73215873323180
  H   0.33363698838850     -0.42993723754261      0.93701813375602
  N   0.37448683150868      2.04304332983517      1.20456848372632
  H   0.61107332356757      3.03218806896600      1.18587705906382
  H   1.09090676787438      1.57973172623226      1.76602690331574
  N   -0.26621683681639      2.12086325229705     -1.14322832868277
  H   -0.07304528572803      3.11762512807595     -1.13707278023150
  H   -1.22995664214673      1.98695570784462     -0.86033184068509
