11
Coordinates from ORCA-job run
  C   -0.18720731820143     -0.00824972777029     -0.32802359471618
  C   -0.24609215702425      0.04099540266787      1.12145918486907
  Cl  1.52223663891623     -0.07723937409698     -1.14178329070339
  H   -2.69652049721613     -0.24395906747959      1.87485272585962
  H   -1.44814662939371     -0.03630878268974      1.46273349649793
  H   -0.69904855632726     -0.85584540716020     -0.77602817667697
  H   0.19337366919742      0.95060507130636      1.53056747434562
  H   0.19886041428908     -0.85242498521463      1.56394156671320
  N   -0.82008896395601      1.20593810069263     -0.94716178686844
  O   -0.50297685528611      2.30826652570679     -0.51320446029374
  O   -1.62628974499783      1.00401224403777     -1.85545313902671
