14
Coordinates from ORCA-job run
  C   -0.14678229323254      0.05004491559299     -0.26275762851068
  C   -0.18938106398675      0.04801888814935      1.22993328838687
  Cl  1.55547171953983     -0.12003903423401     -0.92367054280751
  H   -2.57487117887695     -0.67376520214101      1.34611927236259
  H   -1.42033219548924     -0.14006106360415      1.44416862507415
  H   0.22141431562919     -0.90828105418489      1.56719318656817
  N   -0.98057627625966     -0.94185736201267     -0.85187393112012
  H   -1.78899826220275     -1.03954205275412     -0.20427846006541
  H   -0.48474199059416     -1.82282967651108     -0.88377598838703
  C   0.44645517327996      1.13497922108871      1.92163956684874
  N   0.93646699840908      1.99898275158721      2.55587299889283
  N   -0.66023410436053      1.40460944326842     -0.81866471158054
  O   -0.50764715121569      1.61848307811552     -2.01296627851340
  O   -1.25489369063979      2.13362714763974     -0.02982939714866
