15
Coordinates from ORCA-job run
  C   0.55796107622137     -0.04953820802961     -0.08460186486163
  H   1.61547094926335      1.67728768834589     -0.36616245029471
  Br  -1.73823017298304     -0.42239191604967      0.18423188838862
  F   2.59659256533098      0.10197966367365      0.26266115337490
  C   0.56959877494240      1.46742230508503     -0.13039598065563
  H   0.74302256744144     -0.52666227596162      0.85625355383337
  C   0.78454450394618     -0.78674796410293     -1.37218476280386
  H   0.14765912948582     -0.39209245282029     -2.16254828790405
  H   1.83758537600437     -0.64637239179710     -1.61006911947801
  H   0.57709357471971     -1.84882424826451     -1.23853566263660
  C   0.31705149829738      2.03793340160126      1.20716203545276
  N   0.11604636676538      2.58836259892421      2.22584018968456
  N   -0.28572516905812      2.03195013888527     -1.17029985813064
  H   -0.15954118675191      3.03722111188068     -1.18009063675103
  H   -1.25177985362532      1.82956254862975     -0.93612019721805
