13
Coordinates from ORCA-job run
  C   0.32160110682691     -0.00183608817940      0.11616132804633
  H   1.48079040935784      1.72259392361351      0.43486907081717
  Cl  -1.75532527237838     -0.18321556003676      0.54503053368992
  F   2.21001396301212     -0.13744303317982     -0.55906029081443
  C   0.47518582792924      1.50521016499436      0.07917433802694
  H   0.22791388346214     -0.56085005282013     -0.79512786811736
  H   -0.25527625867721      1.97479311819691      0.74168990133556
  C   0.84865928442998     -0.70686377646103      1.25984142073874
  N   1.21766200577865     -1.24373520005343      2.23861457509769
  C   0.32470211573494      2.00437580161907     -1.34892526714621
  H   1.10286131105560      1.52952984666856     -1.94552264842749
  H   -0.65937227837471      1.74411458393636     -1.74885751938377
  H   0.43789390184288      3.09181627170179     -1.40602757386308
