13
Coordinates from ORCA-job run
  C   -0.40961764588790      0.44147705398206     -0.03380508633918
  C   -0.13687078573450      0.18457430780110      1.29562026947993
  Br  1.50684938719963     -1.98944942999066     -1.71402498175903
  Cl  -2.98204137498254     -0.35193857159662      1.89847954923336
  H   -1.42169333719228     -0.25460750001219      1.43122334699116
  H   -0.06020451896191     -0.26693140019399     -0.79022322526193
  H   -0.27856003537542      1.00091137204145      2.00959706435265
  N   0.86043689608719     -0.77601402749274      1.65649487104136
  H   1.23565831232124     -1.22099850776928      0.81963659509614
  H   0.45380417959423     -1.49714926192460      2.23930464731124
  N   -1.13196914955761      1.49425068307074     -0.46667007496446
  H   -1.60309147861646      1.37618550398430     -1.34826316549919
  H   -1.65435044889366      2.01035977810043      0.22681019031795
