15
Coordinates from ORCA-job run
  C   0.78564594374609     -0.02984464023471      0.08419123956528
  H   1.72074762410177      1.68166725108426     -0.67611787353407
  F   -0.98957570052510     -0.49798500863309     -0.83345610017195
  Cl  2.73446686646791     -0.19140177364081      0.91098045289463
  C   0.77567724317822      1.48057472028951     -0.14894898440119
  H   1.00918154741887     -0.67740257605847     -0.74065597794544
  C   0.03534252173033     -0.58949662967489      1.18251774286063
  N   -0.46687303575213     -1.02859606763267      2.15141424010375
  N   0.71419630608234      2.16073652666555      1.14604670539512
  H   0.77573629060656      3.15929490293963      0.98316732778918
  H   1.52284611949697      1.88680343329928      1.69286805876986
  C   -0.36578094080011      1.98871087571162     -1.01431068709210
  H   -0.37705090956384      1.48464648359297     -1.97721620019385
  H   -1.31676996569845      1.78476005850937     -0.53201062422436
  H   -0.23053991048944      3.07020244378248     -1.16042931981548
