10
Coordinates from ORCA-job run
  C   0.62140257003937     -0.01403623144744     -0.01848938355122
  H   1.57010217931886      1.87723468951593     -0.33953917491685
  Br  -1.76059407773268     -0.35512621229482     -0.47632243542357
  Cl  2.90938018492149     -0.20379633132054      0.46120845513022
  C   0.59741732779959      1.49941617588314     -0.02280387669070
  H   0.82945705311413     -0.52939823971024     -0.93658425559297
  H   0.46759797073542     -0.57530440869108      0.88143127261976
  H   -0.16148933999136      1.85753203861274     -0.71932963120204
  C   0.30135884333929      2.05580635784947      1.29489658668048
  N   0.05883728845591      2.53115216160282      2.33976244294688
