15
Coordinates from ORCA-job run
  C   0.40990558732488     -0.08678085399725     -0.04566215542953
  H   1.59711365486134      1.69120119404011     -0.30272714042609
  F   -1.16226833696533     -0.16696490759896     -0.24456207047368
  H   2.25968740285461     -0.18343440672671      0.28447908976726
  C   0.55692686001268      1.45452211419886     -0.08695422602568
  C   0.92447831427845     -0.80741051611225     -1.19235479909539
  N   1.12326574420602     -1.37788873630232     -2.20684924610173
  C   0.58679957120488     -0.74239658114653      1.22922883898070
  N   0.46344034120593     -1.26158367468537      2.28461574937640
  C   0.15381015998642      2.06387548098462      1.25443667542589
  H   -0.85039971657266      1.73261676588149      1.52037634954042
  H   0.85434597293813      1.73432287408658      2.02381610302597
  H   0.17108563835160      3.15473229353468      1.19787706674626
  C   -0.26020572258773      2.01674999814460     -1.16924378676457
  N   -0.83804547109918      2.56548895569844     -2.03234644854626
