17
Coordinates from ORCA-job run
  C   -0.09536928532195      0.04728020112635     -0.35383565145050
  C   -0.09005396136650      0.02412613816764      1.11493365872616
  F   1.25062021618604      0.07542091678483     -0.94859589669898
  H   -2.61468797856121      0.11576708473012      1.36539533930779
  H   -1.64970497873852      0.10253968212729      1.34578282707772
  H   0.35228898207270      0.95233454953921      1.50654367381213
  C   -0.75392021686822     -1.17045681927833     -0.97100836586509
  H   -0.19648646934246     -2.07301010920825     -0.71324268800236
  H   -1.77693449757646     -1.26356749251830     -0.59137384337533
  H   -0.77002240868042     -1.05633215106186     -2.05737629994324
  N   -0.72615966582186      1.24849123358747     -0.90554382749270
  H   -0.25733457281427      2.02988900941485     -0.45260108070251
  H   -1.66820522277034      1.24346217559896     -0.51178788854040
  C   0.46408536670176     -1.21904975631038      1.77926034850590
  H   1.41331439709652     -1.59119541540029      1.35533696563107
  H   0.64365785044605     -1.03105117872755      2.84518561883242
  H   -0.25428755464086     -2.05246806857177      1.73557711017793
