15
Coordinates from ORCA-job run
  C   -0.22936970141216     -0.01318180888694     -0.25801471285129
  C   -0.20172738283004      0.11753461778062      1.19793222777642
  Cl  1.52393539655428     -0.22521971119271     -1.09212121150984
  F   -2.61547191309301     -0.27925297982259      1.75797759830332
  H   -1.47423180061451      0.11269479807918      1.46825673644400
  H   -0.57994624891478      0.88996039217711     -0.75994915986605
  C   -0.96618449862898     -1.17772114925562     -0.73698260434018
  N   -1.53721616521176     -2.11850811560125     -1.14786860422039
  C   0.52549069577572      1.35594416824877      1.67446057087585
  H   0.17328051531516      2.25572273975695      1.15601795851227
  H   0.34628892219035      1.48310295723708      2.74451449349699
  H   1.61119970009196      1.27837910318302      1.52004115478107
  N   0.22470612992173     -1.07676622340896      1.91688331048744
  H   0.92205020975251     -1.59770928235895      1.39285130268074
  H   -0.59753385889648     -1.65661950593571      2.04118093942964
