17
Coordinates from ORCA-job run
  C   -0.22370105761291     -0.00956622432677     -0.28633887620149
  C   -0.30930902515212      0.12766908057265      1.17250059885400
  Cl  1.64976849468144     -0.10357324269315     -0.91027731122174
  H   -2.55411028400241     -0.61348811235001      1.90277381072006
  H   -1.51210083227643     -0.03214026467186      1.41800530199747
  C   -0.87968733849501     -1.27114730914656     -0.80166503961020
  H   -0.33792992067425     -2.14778246843239     -0.44809303578756
  H   -1.89227235375216     -1.30194906711111     -0.37436310506081
  H   -0.91523748827635     -1.28748372075934     -1.89169639949216
  N   0.09428143438846      1.44217624623260      1.62385829939130
  H   1.08186410679855      1.40541455469920      1.86259034791674
  H   -0.40507484100906      1.61766396676662      2.49104673969110
  N   0.23805799671781     -0.98142786400487      1.92312539461806
  H   0.91888042362344     -1.50691590540906      1.38704935531850
  H   -0.54577604803873     -1.58323663933852      2.18465594122111
  C   -0.73519272876406      1.16775641425379     -0.97794613265112
  N   -1.20884053815620      2.04396055571881     -1.60306588970328
