14
Coordinates from ORCA-job run
  C   -0.44561052034475      0.07057890664725     -0.25792213890950
  C   -0.20922043580962     -0.01865746392208      1.10218194674779
  Br  1.63470974220068      0.07980911392507     -1.63680458746672
  Cl  -2.79713200495606      0.18584967649441      2.55037785698637
  H   -1.60467921941102      0.07302990948066      1.69702611916571
  H   -0.77350625028916      1.00363022931661     -0.69491908136243
  H   0.13545691420901      0.93486259019200      1.50343860933979
  C   0.34017006607570     -1.23923608969901      1.79492124007084
  H   1.29275490777345     -1.52123228712895      1.33261801749924
  H   0.50318692122193     -1.01833039218969      2.85233898549349
  H   -0.33009473694503     -2.09427572018851      1.71951069606092
  N   -1.08272966829227     -1.04736251907995     -0.96534677403197
  O   -1.90854772056442     -0.73916798167605     -1.82812000690475
  O   -0.79804799486844     -2.20052797217174     -0.64641088268877
