12
Coordinates from ORCA-job run
  C   0.60240445996656     -0.03820403403151      0.03742577357401
  H   1.70660567235403      1.67998945086567      0.51721215229490
  Cl  -1.50558554960213     -0.26698881830955     -0.06271142968663
  F   2.51405969487543     -0.08381243579376     -0.08708346820759
  C   0.69887322230249      1.46383433247066      0.17043956179750
  H   0.73324244604476     -0.56786455973530     -0.88273715415889
  H   0.58665045753661      1.87526240938190     -0.83589204433011
  N   0.81424369767278     -0.84451170001928      1.25268656798908
  O   0.90973919271292     -0.23456628674322      2.31408479568130
  O   0.87233356818633     -2.05884532130223      1.11536624851507
  C   -0.26057508622175      2.12977169721511      1.05201391558314
  N   -0.93463177582803      2.78783526600152      1.75209508094818
