14
Coordinates from ORCA-job run
  C   0.19569832197193      0.47036591457068     -0.45317566429721
  C   0.04743827100662      0.22942253861581      1.03209595602007
  Cl  0.69170539890604      2.13915163719738     -0.82611086964230
  H   -1.80979073806385      0.83452974506543      2.54498103575951
  H   -0.76782927106742      0.92103352967845      1.58624697011872
  H   0.89972678306744     -0.19627656075473     -0.94975464252376
  N   -1.12108396252431      0.19365068532445     -1.13330222652514
  O   -2.07634963898341      0.89473224808957     -0.83625509735043
  O   -1.12162700385528     -0.73541095699413     -1.93913222020909
  N   -0.57367361905480     -1.05978922402726      1.25584344652395
  H   -1.30653758853238     -0.82616093432819      1.95815068863886
  H   0.07401546754400     -1.72897370804665      1.65086909452916
  C   1.32954156420606      0.41480009181862      1.68510758394483
  N   2.35973601537937      0.53955499379056      2.24341594501282
