14
Coordinates from ORCA-job run
  C   -0.01306781733311     -0.03165326865684     -0.37499185859134
  C   -0.18700160445970     -0.02729994133032      1.07410577331830
  F   1.30104407182248      0.14411055168339     -0.87452564130228
  H   -2.51002219773085      0.24817507063880      1.96616415581353
  H   -1.45346622586803      0.07931394387870      1.42097672028946
  H   0.07931827951123     -1.01324908268992      1.47017621033361
  N   -0.79654456682747      1.09874859057071     -1.00860169813479
  O   -0.31914645693089      2.23215484950472     -0.96984372771555
  O   -1.89250684518633      0.80758415744158     -1.48825869491488
  C   0.46341489429222      1.10223043160381      1.84481287021022
  H   0.15170078752725      2.07199292709335      1.44963534753093
  H   0.10885444558477      1.05540756925927      2.88143944323029
  H   1.55959389400380      1.07707303918427      1.84464294011783
  H   -0.40713065840538     -0.92894883818152     -0.85288184018533
