12
Coordinates from ORCA-job run
  C   -0.26508805870538     -0.05138079005150     -0.26402217196744
  C   0.10083759439965      0.00892476832975      1.11582765763660
  Cl  1.45583234757620      0.21699175153056     -1.51311595560838
  F   -2.64105681732709      0.31421306993249      1.44269526177734
  H   -1.68466716155550      0.19873148950687      1.45724887843977
  H   -0.74666584054400      0.84618845434088     -0.63923279151490
  H   0.59340185929472      0.91826850259550      1.45028091524143
  N   -0.88577600189627     -1.21844877794066     -0.77454890887742
  H   -1.88919922060034     -1.11507159443443     -0.69034736874904
  H   -0.58623161946619     -2.03124277641809     -0.25013338498634
  C   0.52572156766062     -1.18697380174476      1.74916154677039
  N   0.81097135116358     -2.20274029564660      2.28178632183798
