17
Coordinates from ORCA-job run
  C   -0.14637045529122      0.08127702037101     -0.28513446911252
  C   -0.15399010858583      0.06738040264489      1.17936639673803
  Cl  1.59194785514310      0.00781440669021     -1.09453855677194
  H   -2.63607951129273      0.39014107819054      1.83428748855713
  H   -1.34358908424316      0.17584011053221      1.47474778190886
  H   0.25017567632120      1.02618897139862      1.52028030087201
  N   -0.81859432397237     -1.17418662801148     -0.81479575090865
  O   -1.89171765059119     -1.03679401707224     -1.40181306503535
  O   -0.28221791302676     -2.25434630078070     -0.58141640882445
  C   -0.83085024452090      1.30295694032343     -0.83599458486351
  H   -0.91852398471289      1.26752512905080     -1.92138714218623
  H   -1.82290226595144      1.35955243076337     -0.37163475600469
  H   -0.24841766161133      2.17963169468987     -0.54875529345412
  C   0.45516430378147     -1.09543302385039      1.93480927586355
  H   0.47899603465327     -0.84338219120146      2.99970763669990
  H   -0.14711021233447     -1.99931158646439      1.82815101933723
  H   1.47367954623526     -1.32792443727429      1.60680012718473
