15
Coordinates from ORCA-job run
  C   0.47938750031608     -0.03828787456952     -0.06149787560821
  H   1.38679728462145      1.70845023569399     -0.71381070262566
  Cl  -1.72735426809271     -0.51197996493117     -0.26554555336459
  F   2.30284629959834      0.17494155305373      0.60022960938433
  C   0.46606406585753      1.47866354749641     -0.15970184692832
  H   0.37461225151084     -0.48031406291939      0.90828232625206
  C   0.90337236350073     -0.82497718096034     -1.26688194938247
  H   0.34738842575513     -0.50633558438527     -2.15014842513462
  H   1.97202080926317     -0.66969756595942     -1.40826693891037
  H   0.70217447615853     -1.88441007803751     -1.11300419764506
  N   0.49990568087335      2.03432663015532      1.19356351091981
  H   0.63391672326423      3.03825905362541      1.12808721838624
  H   1.35760790875247      1.62120406800788      1.55629316722313
  C   -0.62500695635322      2.08901342280397     -0.93513234627430
  N   -1.35016256502592      2.73706380092591     -1.59394599629200
