17
Coordinates from ORCA-job run
  C   0.48980823499064     -0.13079466263561     -0.01437484406910
  H   1.48222921418835      1.71321250809447     -0.35105286789383
  Cl  -1.55040860463091     -0.47929430698976      0.00432584686341
  H   2.53620475831332      0.09710730547956      0.03545440330294
  C   0.46375439779440      1.41482699861280     -0.11162495230097
  C   0.83118149211808     -0.79754283769063     -1.35382366654295
  H   -0.06123043316529     -0.89292780088902     -1.98129062796088
  H   1.60058216451570     -0.24279112485450     -1.88351083917575
  H   1.23139432389785     -1.79123164376952     -1.15027909321530
  N   0.71384948673027     -0.67242560953613      1.30823849914847
  H   1.69879093291977     -0.87607863134901      1.37385715127617
  H   0.12829470069532     -1.48674892977409      1.44719554124611
  N   0.18087857156404      2.03792754708935      1.22817986831091
  O   1.15979237399445      2.31146574571796      1.91403211294520
  O   -0.98955791985505      2.23086368073175      1.54211194212226
  C   -0.46199769706566      1.95824079534848     -1.10474202562734
  N   -1.06627599700525      2.46486096641390     -1.97655644842933
