19
Coordinates from ORCA-job run
  C   -0.13999311857670      0.06252728178218     -0.28892504804240
  C   -0.11747766815026     -0.03333503743532      1.16889979730838
  Cl  1.62904874443353      0.21130043535253     -1.11908862110665
  H   -2.44674920351205      0.76751103545777      1.51420998051125
  H   -1.35023020198159      0.17193777992646      1.39583855593284
  N   -0.70685805597943     -1.24488043424373     -0.85907842114904
  O   -1.90850758979189     -1.23672328315406     -1.11241750141383
  O   0.02520841241835     -2.22758017477387     -0.93918915981709
  N   -0.90540375661141      1.12788147197753     -0.82928016868361
  H   -0.35736546070647      1.97560448278713     -0.77212625857561
  H   -1.72134636773573      1.22630458324007     -0.19715555871769
  C   0.40398230253828     -1.30825953086881      1.79548235750075
  H   1.46379598579541     -1.47650304424956      1.56460616662612
  H   0.29723438347212     -1.23679723762376      2.88339851267629
  H   -0.14819922873808     -2.19242216390666      1.47104660940610
  C   0.45790296085223      1.21314782252065      1.81366263854842
  H   0.39350040463727      1.11635855078624      2.90223429961936
  H   1.50476427262074      1.38087225445208      1.53514326260756
  H   -0.13592681498428      2.09171520797316      1.54572855676883
