20
Coordinates from ORCA-job run
  C   -0.28792839009894     -0.02995547360715     -0.27737985611831
  C   -0.08979377669712     -0.02296851040020      1.14162783724573
  Cl  1.58820650966016      0.03619484429235     -1.27668591641632
  F   -2.58805275892758      0.41809671355949      1.48326054425418
  H   -1.48360436769975      0.11319481823180      1.39808430523290
  N   -0.92496552784911      1.13793533249963     -0.86393142451053
  H   -0.31819555620515      1.93582446570577     -0.71912259497521
  H   -1.75627005671295      1.27380747465191     -0.28639246159216
  C   0.49101142397419      1.25395791317461      1.71611562471044
  H   -0.14813561303082      2.11775952262956      1.51558585210617
  H   0.57585365249970      1.17258522360811      2.80506667418876
  H   1.49279754173980      1.46030987908861      1.30944218133374
  C   0.52189990416271     -1.26822209811624      1.74706259368392
  H   1.55261435277228     -1.42237369946503      1.39089493636877
  H   0.55323447694908     -1.18280910125737      2.83917910655076
  H   -0.04976750196536     -2.17072204517736      1.51635226206575
  C   -0.87409079353015     -1.28321359179816     -0.88658605273746
  H   -1.87837189928424     -1.41073798017216     -0.46611874605197
  H   -0.94704099055381     -1.14742375214124     -1.96450195143134
  H   -0.27307062920298     -2.16665993530693     -0.67523291390781
