17
Coordinates from ORCA-job run
  C   -0.12265912615403     -0.14311679641037     -0.19256148918349
  C   -0.25244938781872      0.16389137526402      1.29632425877887
  F   1.24850615138996     -0.46819251843180     -0.39238299479730
  Br  -4.01464070889772      0.09573662967363      0.12221941134571
  H   -1.30902573182768      0.38665526596900      1.47477011976826
  H   -0.02183349656494     -0.76588283657682      1.83260799565004
  N   -0.87829876190895     -1.28976707919336     -0.61071431206944
  H   -1.86448164483750     -1.01840203749822     -0.60860835671818
  H   -0.77889923138073     -2.01977428675540      0.08791398075606
  C   -0.46469882790268      1.04388515749587     -1.09298881852374
  H   0.39771483295828      1.26147412156094     -1.72554699667352
  H   -1.32014242074629      0.80324202724764     -1.72231831813290
  H   -0.72397117539853      1.93499148412979     -0.52164447528626
  C   0.65849634490495      1.27527452967025      1.80820860485951
  H   1.70462233377095      1.03995553167149      1.60228718876227
  H   0.42751281243836      2.23440786691507      1.33914201744797
  H   0.54145803797531      1.40403156526830      2.88825218401616
