18
Coordinates from ORCA-job run
  C   0.62988416777220     -0.11563979890037     -0.05182799949670
  H   1.53098924237671      1.68541071250302     -0.26903592360659
  F   -1.63228703166024     -0.09955978034354      0.41839692569811
  Cl  3.65685322213662      0.27455501377552     -0.02760949990613
  C   0.49522692412217      1.37983282875646     -0.04594403458076
  C   0.93831666679196     -0.79000809884587     -1.33413544820422
  H   -0.04477713216403     -1.05060743936982     -1.74311518180532
  H   1.47339559789423     -0.13327465794426     -2.01393116639096
  H   1.53572826887963     -1.68599568377093     -1.17230687228962
  N   0.59006262316345     -0.77924532593381      1.06563966712024
  H   0.72568429556044     -1.77629083113965      1.00047261368635
  H   -0.22322827051956     -0.46614358806947      1.60370035596374
  C   0.05528605396653      2.00238274119295      1.27366360217813
  H   -0.95676402835677      1.66068950036343      1.48080234570388
  H   0.74838295609739      1.70194955562909      2.06289972531584
  H   0.08548569717064      3.09095403212704      1.19276683064103
  C   -0.35337748255977      1.81218162476175     -1.15572760415181
  N   -0.96935177067162      2.23304919520851     -2.06182833587525
