20
Coordinates from ORCA-job run
  C   -0.40785791465667      0.02050714897127     -0.18703160460650
  C   -0.01261411008871     -0.03395265089080      1.13693944195823
  Br  2.08089448199573      0.33317658897286     -1.40351066845618
  Cl  -2.75601023281582      0.04650699155484      2.24674083556262
  H   -1.36117995718484     -0.03607002821121      1.52335161747318
  C   -0.81197016218262     -1.23390909674767     -0.90048423089771
  H   -0.08173986981838     -2.02742871298378     -0.75319663685788
  H   -1.78895407449200     -1.56814890181055     -0.52194288037791
  H   -0.89547284884938     -1.04772986587177     -1.97092441344206
  C   -0.93181586685046      1.29768329405650     -0.76570679923606
  H   -0.87016509402125      1.27358943708942     -1.85230485187102
  H   -1.98553424155723      1.40008560876245     -0.46435828841000
  H   -0.37844062501458      2.16472025915542     -0.41329367896059
  C   0.51474825921748     -1.31568801997761      1.72960810643013
  H   1.52145542387196     -1.49358010765979      1.33292074687818
  H   0.57408818390090     -1.19922237441559      2.81228068034976
  H   -0.11649030550789     -2.17726322567351      1.50391361236390
  N   0.52304691107170      1.14371770449513      1.78328344845720
  H   -0.20000728343161      1.84267032861126      1.90869300537819
  H   1.23056932641365      1.51859562257317      1.15170255826451
