16
Coordinates from ORCA-job run
  C   -0.31377916298504      0.04004957014442     -0.24798261578878
  C   -0.07947992935789      0.13300470347301      1.15761546812223
  Br  1.76269159754710     -0.27491617923085     -1.29771789913296
  F   -2.57508166046629     -0.21912181705219      1.51553542927365
  H   -1.43341612954396      0.10809480358057      1.43118108174362
  H   0.40162839666986      1.06440619887559      1.46360151394306
  N   -1.00198901936937     -1.12548120389472     -0.74315541822793
  H   -1.88324680318709     -1.10282510837480     -0.22239297671312
  H   -0.49456558431523     -1.94251792049108     -0.42192535493120
  N   0.44489290518277     -1.01918214214650      1.86607644370843
  H   1.19868930456549     -1.42735319035539      1.31568018271351
  H   -0.28828191871088     -1.71011273305990      1.96989001080593
  C   -0.81644610088539      1.29233072871292     -0.91472884593733
  H   -1.85000099621542      1.44101544777840     -0.58120273914958
  H   -0.21849294201667      2.15878430884975     -0.62794678848021
  H   -0.79757195691199      1.17157453319077     -1.99648749194932
