11
Coordinates from ORCA-job run
  C   -0.27822370930721      0.02948834725646     -0.08996858838681
  C   -0.27236890315448      0.78370244951491      1.22349160710076
  Cl  1.35939914179111     -0.42315824698199     -0.65457435255079
  Cl  -2.37851548747416     -2.02617631758316      1.48421363301387
  H   -0.67517738333490      1.78604148699762      1.08887712747154
  H   -0.87478262466794     -0.88331156783877     -0.02427787807402
  H   0.73680918603232      0.87315029135583      1.62414449895492
  H   -0.89804886020257      0.21577451156228      1.91298356790448
  N   -0.87109539467616      0.83435828098018     -1.23038249611770
  O   -0.81652729827159      2.06171016375962     -1.18521526852276
  O   -1.34336866673441      0.18421060097701     -2.15739185079353
