11
Coordinates from ORCA-job run
  C   0.50986368255401     -0.07466274250291     -0.00300736111123
  H   1.68796861588244      1.65836136397428     -0.00670930683263
  Cl  -1.52119464792744     -0.31124922439154     -0.00011487725059
  H   2.56293211477739     -0.12500740161031      0.01240894461957
  C   0.61245072787459      1.45172159053747     -0.00269640746864
  H   0.78288056357344     -0.56472299058591     -0.92082380194522
  H   0.78214652515418     -0.56582190956069      0.91405640078236
  C   0.03938372268028      2.05506220250482      1.20259778452606
  N   -0.33556066209645      2.57342388443942      2.18734631247283
  C   0.02847348647858      2.05831251447935     -1.20111971685704
  N   -0.35320412895101      2.57983271271601     -2.18163797093547
