11
Coordinates from ORCA-job run
  C   0.49079219823374     -0.03188661163327     -0.04235014763627
  H   1.78652553037571      1.72826254423231     -0.04942127077749
  Br  -1.87135039637089      0.00450236117512     -0.01512984023317
  H   2.10739252747393     -0.51935676190430      0.41863261630558
  C   0.72391195811573      1.47570059177651     -0.02016950054123
  H   0.27132771371132      1.87794769000641      0.88792503553808
  H   0.22867350461968      1.92271702355765     -0.88157557129090
  C   0.72683645568801     -0.70152131138477     -1.29870402052643
  N   0.85998876295708     -1.26714552264727     -2.32635248339562
  C   1.04927087630900     -0.75476741291481      1.12235861772535
  N   0.99143086888669     -1.26724259026357      2.20372656483211
