14
Coordinates from ORCA-job run
  C   0.47312999403936     -0.09633483084298      0.00003194985131
  H   1.36323756073799      1.84303365163166     -0.47632564553030
  Br  -1.77727167117114     -0.52697300660966      0.08603508836074
  H   2.16189364183514     -0.02406618130077      0.55851887640033
  C   0.43302927010104      1.43577883224000     -0.07160438595251
  H   -0.37709495445590      1.70232705633548     -0.75552503828514
  C   0.79800788347048     -0.75758168799043     -1.33503023865265
  H   0.15380188850437     -0.33361209025452     -2.10766292882635
  H   1.84230315186830     -0.61261336991434     -1.62025806287063
  H   0.58483035980958     -1.82554885607576     -1.26364368366241
  C   1.08649153914483     -0.69524487625948      1.17808883712907
  N   1.10557269020609     -1.38019181425857      2.15867268281081
  C   0.17709002126127      2.08113503132561      1.21448008619871
  N   -0.00208137535146      2.66838214197375      2.21507246302905
