14
Coordinates from ORCA-job run
  C   -0.21603821800327      0.01936771577416     -0.25253938050998
  C   -0.06629037606603     -0.11074451390477      1.19774500425465
  Cl  1.43720251524112      0.50148196672447     -1.22667780840994
  F   -2.43766844883328      0.56185759744913      1.62551545975772
  H   -1.38117865754174     -0.00395378339705      1.47369912319592
  H   -0.86280257822273      0.85630569338230     -0.51021142322529
  C   -0.64488871967469     -1.20217588171049     -0.91776593574677
  N   -0.99537380036558     -2.20525070143086     -1.42074254271789
  N   0.40243498967062      1.11159265496803      1.82482516764195
  H   -0.41901777150067      1.66413003427867      2.04112371991484
  H   0.99502988598113      1.63853968596359      1.19007794151407
  N   0.64858397654148     -1.27751891539820      1.67792025670294
  H   0.17130002798165     -2.11682799793647      1.37145573558369
  H   1.58921717479201     -1.29557355476253      1.28557468204407
