12
Coordinates from ORCA-job run
  C   -0.08274231834562      0.03515989755462     -0.43531642916860
  C   -0.12654277744417     -0.11352574261344      1.01974583209496
  F   1.24251051693445      0.15404048039723     -1.02766862896720
  H   -2.14827146939893     -0.12748659541098      2.36705872941881
  H   -1.36082974005135     -0.23268954409359      1.57564797640822
  H   -0.50477900971966     -0.84556769979329     -0.93428927396249
  H   0.36115323240366     -1.05333265654940      1.32037044526365
  N   0.28572358073353      1.07850504889756      1.73247674477134
  H   -0.36621391235796      1.17958718777427      2.51741267885418
  H   1.22270128312872      0.99977596751735      2.10480387411241
  C   -0.80613711477722      1.23367143816060     -0.89481990254595
  N   -1.39710227110544      2.15745221815907     -1.31449204627933
