15
Coordinates from ORCA-job run
  C   -0.11753138563400     -0.00669340641576     -0.38685547539039
  C   -0.09160982862230     -0.07232291756193      1.11673905214339
  Cl  1.57740073784538      0.10080283970073     -1.12249066745205
  H   -2.53423239231078      0.44794957482363      1.33827912368245
  H   -1.33217823372977      0.00768967263152      1.33365343190088
  H   -0.50767716954268     -0.94614914906211     -0.78441432384552
  N   -0.90167189894672      1.08285724025845     -0.91845720254527
  H   -0.44259296506653      1.95209121792883     -0.66503376683012
  H   -1.77257250456696      1.05108342466687     -0.36724123188292
  C   0.43931157469685      1.16713816808272      1.81487866488011
  H   -0.27644963967516      1.98443927926404      1.67330776480406
  H   0.50872895702416      0.98790512224798      2.89069885999746
  H   1.42458408944564      1.47376173412591      1.44830295063509
  C   0.46006445266623     -1.29917257091817      1.61856137978704
  N   0.88540620641663     -2.31085022977270      2.05238144011578
