18
Coordinates from ORCA-job run
  C   -0.16160490397246      0.06141109716299     -0.31378685056856
  C   -0.26266730371306      0.12567011020262      1.21904855441982
  Cl  1.56266312530621      0.11427971005238     -0.79730775656949
  F   -2.41014137974480     -1.68331232982292      0.98795270555863
  H   -1.33143602328416      0.22082217235509      1.43492142552173
  N   -0.83883852317619     -1.03677908514490     -0.87392321036095
  H   -1.58851531905810     -1.38615171069120     -0.15849191512416
  H   -0.18310036432939     -1.77283741440207     -1.09183944853514
  N   -0.86320262665910      1.31359590883846     -0.93007454298122
  O   -0.36345284476827      1.87772069700668     -1.89077035043368
  O   -1.96151428152225      1.55410530201761     -0.44669298110969
  C   0.24018258888330     -1.13717781176318      1.88285057160290
  H   1.25495727375463     -1.38859398178227      1.56867496345541
  H   0.22909527334289     -1.00635288211346      2.96389499166968
  H   -0.49298420060830     -1.89962818182548      1.62264350027626
  N   0.42518436320554      1.35378004243762      1.75754914200854
  O   0.99542966236346      1.27730070968985      2.84552787288516
  O   0.35201548398006      2.38810764778216      1.09472332828475
