16
Coordinates from ORCA-job run
  C   -0.15910019150903      0.02679759491428     -0.36547324183008
  C   -0.15010822040570      0.05385051445322      1.11387293618099
  F   1.15880726038331     -0.03336202611962     -0.95792995254007
  H   -2.23848332229431     -0.74357367624545      2.16589357236113
  H   -1.31421231768057     -0.12260329470307      1.50904851887285
  C   -0.84192489826678     -1.18096282724498     -0.86969716196633
  N   -1.37308866885185     -2.13970372545224     -1.29299345734902
  C   0.40093911136719      1.33119407282332      1.71489201366326
  H   -0.08286203505131      2.22671721274484      1.31109633004966
  H   0.19873903100335      1.29370837169505      2.78913953682156
  H   1.48514336035988      1.41933178340527      1.57769532660905
  N   0.45792691919231     -1.13362613214478      1.68720223294619
  H   1.02024522343033     -1.64821144632394      1.02127809167984
  H   -0.32119967199386     -1.71658359761414      2.01315739791260
  C   -0.78905653810245      1.22303933845324     -0.95126840975318
  N   -1.29821504158051      2.17941783735901     -1.40674373365843
