17
Coordinates from ORCA-job run
  C   -0.39967382603512      0.02043733450531     -0.27731158756331
  C   -0.17523106483822      0.03847445993986      1.07747239153604
  Br  2.26803736514052      0.15605734500440     -1.10492271165423
  Br  -3.10529950057398     -0.11566949747976      2.08586971998058
  H   -1.55681541540430     -0.03296590925424      1.29349600280194
  H   -0.55498488741923     -0.95711634213952     -0.72829003161547
  C   -0.84988871804610      1.20519743886293     -1.05820397918836
  H   -0.59623956318544      1.08174944021391     -2.11006270699961
  H   -1.94285856688297      1.28409392643677     -0.95814972061095
  H   -0.40180146987010      2.12116588869921     -0.68296906352261
  N   0.21649170742506      1.29637777487593      1.63363823278469
  H   1.13567233178952      1.50867119163880      1.24684635495031
  H   0.28085202473524      1.23166118615799      2.64120152361026
  C   0.31264649950559     -1.21193350570740      1.76280161405932
  H   1.40073466885138     -1.25462694315376      1.65139920893932
  H   0.04654306180047     -1.19546566718678      2.82413891104703
  H   -0.12652464699229     -2.10797812141363      1.31797584144506
