13
Coordinates from ORCA-job run
  C   0.58285764271904     -1.09763187488898     -0.73215283659076
  C   0.59513446235513     -0.71244834746690      0.55794337449867
  Cl  -0.12338683424513      2.69494185216296     -1.13480873707966
  H   -3.19724144568693      2.74338396750763      3.56788001198210
  H   -2.63063574261396      2.43784579690675      3.20816516075954
  H   0.63556683837092     -2.14314731679552     -0.99431129388599
  H   0.53131233849009     -0.32831526236195     -1.49298887826953
  N   0.68980888178299      0.54619184009078      1.07881359189376
  H   0.15925072211967      0.67298148481525      1.92667115214092
  H   0.50730114675853      1.27619302469136      0.37402808947809
  N   0.56787487612411     -1.77290081155846      1.60036913526957
  O   0.25421076715949     -1.42149509995512      2.74116098721879
  O   0.82986634666603     -2.93213925314778      1.28590024258444
