14
Coordinates from ORCA-job run
  C   -0.40737707538116      0.01491961097223     -0.24997086253752
  C   -0.06508017517520      0.10986306791122      1.07197358972180
  Br  2.13061631112373     -0.41055401999697     -1.48431353243308
  Br  -2.97714394182684      0.06273173382080      2.22407114363874
  H   -1.50957174595517      0.19727312322130      1.45968529443519
  H   -0.58344926733858      0.94841233547556     -0.78021871870479
  H   0.28809499534099      1.07626492752774      1.42759165868259
  C   -0.93994186636769     -1.23181120218151     -0.86867278251774
  H   -0.36539407521545     -2.10159270585924     -0.55582794454186
  H   -1.98566760102551     -1.36296971226191     -0.55192313762947
  H   -0.89492419661280     -1.17060874376513     -1.95363325275128
  N   0.38875673815766     -1.01300570332797      1.84822405993632
  H   1.16896966552679     -1.41758742943594      1.33287848294613
  H   -0.34005776525076     -1.71358528210017      1.91780600175498
