12
Coordinates from ORCA-job run
  C   0.03028747631801      0.08112967842800     -0.39652097861728
  C   0.09641490266169      0.13972774068395      1.03739490742031
  F   1.28205167163393     -0.06860990731600     -1.21505450264815
  H   -3.16184987009807     -0.94231900381724      2.03418567506887
  H   -2.49417403682983     -0.67482360078664      1.84418130467054
  H   -0.52959958000525     -0.80716706999370     -0.70165636440268
  H   0.58847683005319     -0.72546161857547      1.48421351857578
  C   -0.59831157338287      1.27364771209747     -0.98937137148374
  N   -1.11368680653777      2.20211846376924     -1.49292482250835
  N   0.78050509060792      1.35143368577956      1.53788560279243
  O   1.96445430409925      1.56308053906887      1.23087566291274
  O   0.15054159147979      2.12204338066196      2.27554136821952
