14
Coordinates from ORCA-job run
  C   -0.02674350258123     -0.16019116876144     -0.45785555788330
  C   -0.17365534163824      0.02538075461925      1.10591215412627
  Cl  1.57903158880352     -1.05336861511190     -0.78549846727507
  Cl  -2.81184079513198      0.98845847608742      3.59235359677880
  H   -0.96752357606889     -0.63882472003752      1.45685367883998
  H   0.76401255586370     -0.30773759620828      1.55285130523757
  C   -1.03109664396517     -1.09225684574948     -0.98594750925664
  N   -1.84152861348989     -1.80785698786009     -1.44749528954762
  N   -0.04425918296130      1.08673105217312     -1.10143331241003
  H   -0.41646110297460      1.76546064954325     -0.43033139924037
  H   -0.49316200317549      1.08614996664290     -2.00330386871144
  N   -0.50496550782365      1.39278887702789      1.44238868142316
  H   0.24716169923974      1.82170922909784      1.96282086287884
  H   -1.33490957409649      1.38875692853698      2.04938512503990
