17
Coordinates from ORCA-job run
  C   0.79640979780152     -0.05360272175058     -0.00485023870225
  H   1.60663516112923      1.69205408152887     -0.84871612497136
  Cl  -0.73125102908992     -0.83073943527218     -1.51695033217115
  F   2.60967539475277      0.10428366222805      0.94309389261367
  C   0.76828678371224      1.46779982466441     -0.17249192720859
  H   1.49273560320214     -0.61980170867325     -0.58458920618973
  C   0.14062097234952     -0.67230202375108      1.19359544340586
  H   0.71072258046276     -0.38620406607897      2.07312193834776
  H   -0.88866276216062     -0.32588549902197      1.29319835403650
  H   0.13467123630592     -1.75719976823851      1.09145047206031
  N   0.97440177020592      2.05293745354283      1.16095327609839
  H   1.14424058953718      3.04557593132020      1.03611151983989
  H   1.83887676647451      1.60141342633034      1.47036669219497
  C   -0.50683035559468      2.07366642712664     -0.74758795465112
  H   -0.65587559062153      1.80035346558928     -1.78943483447365
  H   -1.37603706284684      1.74383081986436     -0.17762913879601
  H   -0.43577985562009      3.16600013059153     -0.66923183143354
