18
Coordinates from ORCA-job run
  C   -0.25701386069040     -0.07039273556745     -0.26748725244825
  C   -0.23779289428672     -0.15466259419830      1.29932520632104
  Cl  1.39673740975593     -0.38284953440495     -0.94503325469876
  F   -2.27156120823278      1.94100200786547      1.48750528694561
  H   -1.29814324957787     -0.25843320039978      1.55008621092266
  N   -1.09714036947036     -1.22715053033352     -0.83688440714114
  O   -1.73654584594914     -1.03989909277435     -1.86747192612542
  O   -1.07129639644151     -2.29830991248262     -0.23157296004881
  C   -0.79485965659890      1.23627091025664     -0.78104638488358
  H   -1.03180977199864      1.16850918097256     -1.84102912346261
  H   -1.64905843322314      1.52908980192966     -0.13702607363457
  H   -0.03076819599521      1.99977703660249     -0.63546066487198
  N   0.52704575832095     -1.25516537748111      1.86698825965311
  H   1.49227335598784     -0.96010739563952      1.93743701977397
  H   0.46890873667457     -2.07220077179851      1.27583500517704
  N   0.17358753087734      1.08951298696694      1.89384080938347
  H   0.92797370232833      1.50835380703605      1.36040877291743
  H   -0.69006661148028      1.67965541345029      1.84455547622079
