12
Coordinates from ORCA-job run
  C   -0.17096892976585      0.03209140338418     -0.31533440789599
  C   -0.11988481621743      0.11539176182667      1.17450897862166
  Cl  1.40418312748533      0.46941079608363     -1.10335967598031
  H   -2.85221920768149     -0.41152093578798      1.56931633368162
  H   0.20883054332845      1.10977007275138      1.47621395771003
  H   0.55943868309386     -0.64929122179591      1.55757416322320
  H   -1.18544799609652     -0.08858138455194      1.51233466951649
  N   -1.16544279046171      1.06388549461340     -0.87703648202600
  O   -1.14563279948665      2.16353531154982     -0.34778276212343
  O   -1.83681816656486      0.72645891559392     -1.84231103901904
  C   -0.53832489496016     -1.29061978349611     -0.81431266534168
  N   -0.72791275267298     -2.36511043017108     -1.24953107036658
