15
Coordinates from ORCA-job run
  C   0.82261566980259     -0.02586237585581     -0.06654266271769
  H   1.55282183253676      2.01988220141171     -0.12110303427869
  F   -1.14757232126205     -0.08662100255421      0.06857343488553
  Cl  2.95823770765936     -0.05255133366854      0.17632772757406
  C   0.60918152547836      1.47812355006649     -0.04075571165043
  H   0.13320619205094      1.72768843965629      0.90483783398849
  C   0.78136820302794     -0.81803039864477     -1.34271461420873
  H   -0.24898227762841     -0.86742816700209     -1.68111973300709
  H   1.41506601758655     -0.33404366724809     -2.08704105621883
  H   1.16751190667478     -1.81687845838318     -1.15403256944787
  N   0.60989996301289     -0.74994619095094      1.23017085681649
  O   0.54739448704653     -0.07739380697452      2.25072396026515
  O   0.56989914556514     -1.97139708279121      1.18511878543191
  C   -0.25106633618835      1.91713631291005     -1.13890774035568
  N   -0.84206171536307      2.37748198002882     -2.04252547707666
