15
Coordinates from ORCA-job run
  C   0.59099337986252     -0.11875081796542     -0.12259763914996
  H   1.70224324579888      1.36739385330465     -1.19775593162502
  F   -1.00292267781132     -0.03978371458552     -0.48877048997101
  H   2.38285481931156     -0.12730835764167      0.27523147574809
  C   0.96878787441065      1.32820862666478     -0.40144815340538
  H   1.30582470350278      1.80064595269098      0.51350636875477
  N   0.87705557034669     -1.08440040352302     -1.17200674361147
  H   0.04337228787238     -1.64818510282831     -1.28766627249647
  H   1.66310658215709     -1.64242123114546     -0.88342534718233
  N   0.34634517976771     -0.47866511419527      1.26539018872671
  H   1.11733260747922     -1.03882641641403      1.58844001134112
  H   -0.52405403912201     -0.99681023904480      1.28685473305206
  N   -0.18856722321986      2.19058731003379     -0.89056271427409
  O   -0.84558631912453      2.80421459600499     -0.04952882785540
  O   -0.37899599123175      2.26282105864433     -2.10447065805162
