15
Coordinates from ORCA-job run
  C   -0.17153605768158      0.05947798659466     -0.58458296776668
  C   -0.25998991994957     -0.05080387139372      0.98290921092405
  Br  1.59394096187793      0.82408048733660     -1.10270022998434
  Br  -2.37868727336339     -0.16991044656386      4.04182069707825
  H   -1.01680650677882      0.65168939754671      1.34104005741163
  H   0.69782520189078      0.28420942542658      1.39199699983676
  C   -0.31986586959978     -1.27349735296674     -1.30614623702735
  H   -1.29167630485804     -1.69751950866630     -1.05555938562914
  H   -0.22665253155005     -1.13181540578744     -2.38466732017084
  H   0.44457649682024     -1.96797816213666     -0.95798383902920
  C   -1.15409042408753      1.00695800145209     -1.10467484775812
  N   -1.96761002470361      1.73897695785627     -1.53468851476877
  N   -0.64278698229759     -1.38122106892643      1.40624254992637
  H   -1.28633457479743     -1.26906330363230      2.19456433115971
  H   0.16435380907842     -1.87970313613946      1.75770949579775
