14
Coordinates from ORCA-job run
  C   0.35250984943435     -0.05199721272660     -0.07367511848097
  H   1.48011524397588      1.61991515458025     -0.68202207099919
  F   -1.21769532101069     -0.16812816800742     -0.70776079975301
  H   1.93065831516780     -0.01686212523762      0.79162655826868
  C   0.52563304269732      1.46432228469639     -0.16687176388152
  H   0.01161156092171     -0.45122526709691      0.86904735070780
  N   0.93666200413372     -0.84799544458468     -1.12879880147861
  H   0.20055789273004     -1.45865868553958     -1.45680473478325
  H   1.70793489702146     -1.37240818123047     -0.74961202850400
  N   0.48742994244292      2.04273210747228      1.18181749444404
  H   0.79049240087977      3.00999603301073      1.12297011648438
  H   1.22482288548689      1.51318408810194      1.65323718161258
  C   -0.49508491800124      2.14993611758210     -0.98602180513491
  N   -1.17696779587990      2.84418929897961     -1.64422157850200
