13
Coordinates from ORCA-job run
  C   0.46209287950759     -0.06148897332612      0.02389280042981
  H   1.66531347656654      1.77245807444836      0.11412830542784
  Br  -2.33397184409083      0.20365860347727     -0.08381270677917
  H   4.05181383355932     -0.80645026010876      0.24279966314766
  C   0.62540584197524      1.43326312269213      0.05049704911259
  H   0.16610023346145      1.86545835406844     -0.83623202949839
  C   0.55286178607879     -0.65723338612151     -1.25315824560697
  N   0.66179874091281     -1.12388777559571     -2.34114439236081
  C   0.60799031889013     -0.89293700845202      1.16289307750955
  N   0.71269285447391     -1.62861702949532      2.08850943841459
  N   -0.02069388101579      2.13725522312193      1.21079662075453
  O   -0.53904978057621      3.22772444866634      0.97758579008971
  O   0.11669554025708      1.64050660662497      2.32456462935908
