12
Coordinates from ORCA-job run
  C   -0.16916158430340      0.00038781274482     -0.32035162491280
  C   -0.09813884904187      0.00174440084567      1.12402156253357
  Cl  1.53819494113415      0.06509586306498     -1.30208749065967
  F   -2.63350294010713     -0.00457175607886      1.41809123534321
  H   -1.42922061773002     -0.02217378029292      1.33619096526130
  H   -0.59340118572567     -0.91785681125079     -0.72552276854642
  H   -0.67644189283001      0.87009978402092     -0.73186408338763
  H   0.28150245967293      0.94976294916054      1.52037285810132
  C   0.56704657697143     -1.20818695926675      1.74731268144594
  H   1.63503422028266     -1.29785012227931      1.50035219411293
  H   0.47478768556559     -1.18670654514120      2.83871327334090
  H   0.07410118611133     -2.12622483552710      1.40513119736734
