14
Coordinates from ORCA-job run
  C   -0.19524440582224     -0.01669839505348     -0.31637524664700
  C   -0.18400140984139      0.03994324388130      1.18843591489630
  Cl  1.47973643384389     -0.07269530427884     -1.03723588779277
  H   -2.50730775961150     -0.96132472469020      1.42972385247234
  H   -1.34565014103869     -0.25553890444166      1.45795434410484
  H   0.34854535866920     -0.84091387618178      1.55838896845194
  N   -0.95467320687148     -1.10012360957409     -0.83223295632965
  H   -1.76868523676811     -1.19934331464340     -0.19169148909757
  H   -0.39773607571042     -1.94160836770295     -0.74292600431142
  N   -0.84398060201833      1.29041964151953     -0.81753864244892
  O   -0.15001358865080      2.30123847993406     -0.84683650715664
  O   -2.03995180055790      1.22972157798103     -1.07406787729301
  C   0.32480563896463      1.23100285538609      1.81672370199320
  N   0.70543679541313      2.17871069786436      2.40401782915839
