13
Coordinates from ORCA-job run
  C   0.14778520518239      0.15019618756942     -0.41903462120706
  C   -0.02511499807486      0.18741097416995      1.11051027037114
  F   1.11491681577027      1.05848341135919     -0.82602748332910
  Cl  -2.91367053263141      0.85521090789189      1.91286379499542
  H   -1.09423925992517      0.49211067839936      1.40762058076950
  H   0.48997892847348     -0.84375322410034     -0.71079931157731
  C   -1.07892724976215      0.44191019575457     -1.17427066925737
  N   -1.97326394790546      0.66028158866648     -1.90225954368359
  C   0.92549134084954      1.07201862620978      1.75447004190640
  N   1.68258321519684      1.80946083438194      2.26698877727006
  N   0.09231491354752     -1.19509709823788      1.67671670625030
  O   -0.28978130088328     -2.11553247377826      0.95542566386129
  O   0.47273687016224     -1.30613060828607      2.83594579363029
