16
Coordinates from ORCA-job run
  C   -0.41287361579976      0.03806552374036     -0.21332932519950
  C   -0.09101756092831     -0.00541133804295      1.19978396855016
  Br  1.49508244499438      0.05452963740007     -1.45267719223681
  H   -2.54309035132633      0.36785958216259      1.69688622747757
  H   -1.29756655316712      0.02938274388874      1.56500155882453
  H   -0.76860390092715     -0.93138247063310     -0.57172316217253
  C   0.51879772946449      1.23094533426958      1.81206972983752
  H   1.51728913042729      1.42404806716934      1.40076081491366
  H   -0.10902974132367      2.11105236306332      1.64596788012278
  H   0.60186154408896      1.07947504221904      2.89063388533708
  N   0.56940434713565     -1.21286015473328      1.66958920017342
  H   1.40038481704830     -1.35208232762501      1.09513056588044
  H   -0.04306760839708     -2.00221485018976      1.48876897932463
  N   -1.25627805511275      1.07343971734923     -0.67227689020079
  H   -0.86794892873970      1.96084195365373     -0.37063633913606
  H   -2.11214369743723      0.93922117630808     -0.08431990149605
