10
Coordinates from ORCA-job run
  C   0.69887154612389     -0.02854038750108     -0.00812752301455
  H   1.49505491169846      1.85754612334379     -0.66251492452357
  F   -1.29408960660111     -0.05393923386256     -0.28691901387835
  Cl  2.73939458292278     -0.36790038917651      0.49982629773181
  C   0.70388392168540      1.48085354664057     -0.01328186824653
  H   0.33027822406687     -0.56818207634554      0.84112031257039
  H   0.89328790751261      1.84419571373276      0.99765930368579
  H   -0.27647411964211      1.79973880727810     -0.35382410620758
  C   0.67436326272806     -0.71362110628503     -1.27810044929500
  N   0.75221936950514     -1.24018099782452     -2.32654802882243
