17
Coordinates from ORCA-job run
  C   -0.00568432824837      0.00699038412876     -0.45654689154232
  C   -0.06332641210452     -0.08989440361744      1.05822476320849
  Cl  1.66047026461011      0.28999970507587     -1.14406983452524
  F   -2.50473477083701      0.97069152164719      1.39833141223089
  H   -1.15031722218381     -0.08501373335903      1.31038078783582
  H   -0.29829178354764     -0.96059798237376     -0.87296654546283
  C   -0.93431110861231      1.10453835157831     -0.94771312451063
  H   -1.13950729762807      0.97607735454316     -2.01382255030271
  H   -1.83839233289452      1.08297117098854     -0.31435310175638
  H   -0.45897085827287      2.07836885749943     -0.80756610339066
  C   0.50934847364333      1.09272738984693      1.81630633705865
  H   -0.23494906303010      1.88271573235674      1.71729975200702
  H   0.57113123866979      0.84386969883877      2.87909653476509
  H   1.49344941569840      1.39819859818719      1.45423893649268
  N   0.54576016607635     -1.35736027986656      1.56131762613248
  O   -0.11214461142004     -2.01087860149477      2.37490141634077
  O   1.67571023008129     -1.67588376397933      1.18340058541883
