11
Coordinates from ORCA-job run
  C   1.16449829249864     -1.05517569564181     -0.37242416694124
  C   0.24957509722817     -0.89137771342799      0.57850864786362
  Cl  -1.83722154607822      1.01051803169990     -1.20097249136290
  H   -2.56852553447522      2.59699398749689      2.04650382671570
  H   -2.41852978108505      2.28820137456007      1.38894138729697
  H   2.06356754047431     -1.64367192233891     -0.22296941646171
  H   0.98027632240348     -0.57273499375090     -1.32412419465233
  H   -0.65919073630151     -0.30266808771972      0.44243180180103
  N   0.43643730068746     -1.51750597163883      1.88714877390996
  O   -0.02399748422794     -2.64823790784872      2.04935791315024
  O   1.01949052887588     -0.86417110138993      2.75322791868068
