15
Coordinates from ORCA-job run
  C   0.61490114013836     -0.02168083275559     -0.03212849855039
  H   1.31195658845813      1.65812778166538      0.99839964299424
  Cl  0.62918156989955     -1.00364410559283      1.47565590828828
  H   2.96284540215681      0.26294923748869     -0.78718073245363
  C   0.49192960651333      1.46002998421552      0.28566636067035
  H   1.80002067012402     -0.04974038342543     -0.48135632150417
  C   -0.38551150198500     -0.51449899296292     -0.93465878363827
  N   -1.16708139783211     -0.94624157512022     -1.70644129290667
  C   -0.83229385970999      1.88943363381111      0.89402438151054
  H   -1.63872768306703      1.69691047874826      0.18207740629899
  H   -1.03210687205567      1.34604844840044      1.82031444066623
  H   -0.82288479781613      2.96271184907114      1.12211123809588
  N   0.70212985024652      2.13284338349431     -0.99825426334818
  H   1.61533823213830      1.81163649113619     -1.32731346577687
  H   0.78198305279093      3.13099460182595     -0.82856602034633
