16
Coordinates from ORCA-job run
  C   -0.38254016284025     -0.03814110518875     -0.08092205242691
  C   0.12236833873362      0.03830185303828      1.19519090219570
  F   0.83499628414545     -0.34472643901145     -2.84655899281904
  Cl  -3.01999097334259      0.51392041966664      2.29955412553640
  H   -1.84441824258264      0.23975453793037      1.76463632193341
  H   0.38579700163366      1.00084663134444      1.62704730003826
  C   -0.52178266892155     -1.24253938551046     -0.86720855895804
  H   -0.33315298452165     -2.17012631348436     -0.32457904030602
  H   -1.46249741833129     -1.27102612848963     -1.42462207164179
  H   0.26331045945903     -0.97312861787462     -1.81667092781162
  C   -0.68364127700186      1.23504081319715     -0.81860040302102
  H   -0.11571710205848      1.16023281350706     -1.75314886501528
  H   -1.74744472759004      1.28514499897679     -1.07563595821257
  H   -0.41437252093102      2.12877034386587     -0.24996935588676
  C   0.50293029354707     -1.11181591633160      1.94506811564529
  N   0.80955570060255     -2.04579850563578      2.59524946074999
