19
Coordinates from ORCA-job run
  C   -0.04476757838434      0.00754552322336     -1.10002950889886
  C   -0.26772354046690      0.36696052993095      1.29997958667089
  Br  2.72740365750170     -0.19153000195658     -1.71030847871450
  H   -3.48105119569065     -0.32513900216213      2.65481518632507
  H   -2.81784156835744     -0.20706034272041      2.33432370225444
  C   -0.89178450714927     -1.24666885745915     -1.04429401326936
  H   -0.25518826557896     -2.10111472337942     -0.82006762356917
  H   -1.61616625733035     -1.12631763685043     -0.23581052561037
  H   -1.39466839184202     -1.40031516125104     -2.00399202738389
  C   -0.81071275045253      1.24292536488232     -1.53928912881087
  H   -1.19890543327850      1.11225714089315     -2.55326464207477
  H   -1.62674090075684      1.41650432368379     -0.83497967971993
  H   -0.13411399184672      2.10022815421054     -1.52044476841357
  N   0.30169980187755      1.32333333843709      2.22263931143842
  H   1.31974312274346      1.21718082683840      2.23421977336661
  H   -0.05100726951123      1.10099780789399      3.14593970418456
  N   0.61630606955822      0.36518738247831      0.12962267420674
  O   0.71208301398665     -0.76535405173573      1.06583995570838
  O   0.92199598497814     -0.24715061495702     -2.18407949768982
