17
Coordinates from ORCA-job run
  C   -0.13164745874118      0.01557371137687     -0.36968942189707
  C   -0.04743626526616      0.09675726777429      1.14030359004690
  Br  1.67724558258629      0.07038108879710     -1.25895994009594
  H   -2.97459349414037      0.35593355211488      1.22370626002902
  H   -1.11054137401345      0.20779306703538      1.47364361096537
  H   0.57305803091925      0.93185234358553      1.47371263599368
  C   -0.85074600867860     -1.25098856110673     -0.78500395899177
  H   -0.30487103170865     -2.14628307757133     -0.47935903543232
  H   -1.83091882759384     -1.21456146269786     -0.28660646272841
  H   -0.98840035465538     -1.27784887102193     -1.86836136754397
  C   -0.89446903867557      1.24343282917214     -0.82704296331951
  H   -1.03455569495084      1.22542886511642     -1.91076906535433
  H   -1.86898590119670      1.20764470683604     -0.30670079190014
  H   -0.36594775794974      2.16175414949901     -0.55677160562159
  N   0.49696110868396     -1.12435358182624      1.80442135456377
  O   -0.17346025226677     -1.62053360261871      2.70966088446907
  O   1.59049873764776     -1.55758242446482      1.43669627681726
