13
Coordinates from ORCA-job run
  C   0.22018097422744     -0.00408822222593      0.17187903695080
  H   1.81252481715316      1.28365163877221      0.78106525553237
  Br  -1.78432023748428      0.08027671110173      0.27462430074411
  H   2.40181761441220     -0.30927020133202     -0.90919308995106
  C   0.84528500590227      1.36994227403802      0.29850315479436
  H   0.49799620187129     -0.45832923423648     -0.77271490132052
  H   0.96872369830611      1.79160000283404     -0.69420431780616
  N   0.65546124046946     -0.97373517590550      1.23830899898196
  O   0.35449817462846     -2.14577412484336      1.04447690738419
  O   1.24427029267630     -0.54093526705779      2.22320982942274
  N   0.03245082472973      2.34100119850825      1.09857323925810
  O   -0.37724512351036      3.34549346740157      0.51163142893835
  O   -0.13400348338179      2.11328693294525      2.29419015707074
