14
Coordinates from ORCA-job run
  C   -0.22917553768475      0.11387365129019     -0.25655639250662
  C   -0.20404056113908      0.17962663634432      1.25669891489821
  Br  1.55774872404205     -0.09572152390776     -1.01102572022944
  H   -1.70808294288807     -2.21687385783923     -0.51897030815631
  H   -1.24947266739735      0.34840852105095      1.54569914462898
  H   -0.86270388915440     -0.76757884061639     -0.58840166548436
  H   0.38831784699957      1.03828370458323      1.59142342651008
  N   -0.80220742789859      1.40396911581190     -0.76601639342389
  O   -0.13906142491383      2.43601758017721     -0.65548231840556
  O   -1.94914951755688      1.35426868931451     -1.20913450894631
  C   0.26771780561206     -1.13774155331023      1.86132845464091
  H   -0.29386207634701     -1.95005557745326      1.39091792129801
  H   1.33419220599911     -1.29165743115809      1.68550687374522
  H   0.09241946232721     -1.14605911428735      2.94164257143103
