16
Coordinates from ORCA-job run
  C   -0.20861269912054      0.04081004458545     -0.29894106327571
  C   -0.05189572226484      0.06408625853878      1.11913390691420
  Cl  1.66305641086759     -0.09022341212247     -1.25765698881904
  F   -2.47677741478783     -0.59345137325822      1.51812123108081
  H   -1.45573693892822     -0.11487881028677      1.38550530365394
  H   -0.51519707003937      0.99625794284351     -0.72648922135954
  N   -0.90551787767434     -1.06518971623638     -0.92051767870570
  H   -1.74198211553909     -1.17804096284636     -0.34676933176931
  H   -0.34011066749427     -1.89539941217739     -0.78337422626645
  C   0.58723700620837      1.30489195001600      1.69001675675203
  H   0.17049008966461      2.21306364955069      1.23998293629423
  H   0.42806262025771      1.34849022799683      2.77117952413472
  H   1.67177348380107      1.30952988213118      1.50610999450314
  N   0.46833549580331     -1.14987265167270      1.73967362407036
  H   -0.26927756648331     -1.84331126284388      1.77140879840179
  H   1.22991296572916     -1.51649235421825      1.17038643439054
