15
Coordinates from ORCA-job run
  C   -0.12028511747720      0.02475985604610     -0.24291387300405
  C   -0.39403600688984      0.14921531658201      1.20403366370051
  Cl  1.62165378011367     -0.18590426620527     -0.70080138862079
  H   -2.60330745798626     -0.98504682263427      1.72584521047718
  H   -1.55603281674527     -0.03036035832122      1.33492151998544
  H   -0.12367979568195      1.15227359430561      1.53859296716777
  N   -0.61424492586231      1.21876110444847     -1.05368567054275
  O   -0.46280455637016      1.15429612336886     -2.26814470234989
  O   -1.13625977218968      2.14425972824100     -0.44191574782787
  N   0.13909756352316     -0.91091191456474      2.02991891607063
  H   0.88155649597274     -1.42156466300400      1.57116388744862
  H   -0.65743330487147     -1.53954008625333      2.18398280829726
  N   -0.89748354533854     -1.16758805983173     -0.79054941782805
  O   -2.03026007694532     -0.91813679630329     -1.18702660177251
  O   -0.39983046325156     -2.27539275587421     -0.63302157120151
