17
Coordinates from ORCA-job run
  C   -0.25421944915803     -0.03671931585966     -0.29233838152055
  C   -0.07941481783233     -0.06369604334028      1.12736052089316
  Cl  1.54645710668614      0.07006047584069     -1.31423242249101
  F   -2.53914605377940      0.46145513868553      1.56277385454333
  H   -1.47208935294120      0.08079720056826      1.42331124782762
  H   -0.57534020763186     -0.99644449956567     -0.70111482928122
  C   0.46624716882653      1.20103150704657      1.75489907589023
  H   -0.14361102946435      2.06982510066463      1.49480109706472
  H   0.44768758565327      1.11864825809294      2.84728974699894
  H   1.50384836140129      1.39678058196540      1.44309233625593
  C   0.57348177773387     -1.31960223594092      1.65505263660586
  H   1.65757611536852     -1.32639722130750      1.46012709132423
  H   0.42632365959490     -1.41895684799251      2.73729000731708
  H   0.15313756917755     -2.21398664491252      1.18129438333569
  N   -0.99771877499677      1.05334547679796     -0.89551268210441
  H   -0.43391320486870      1.89250183740102     -0.82970348962918
  H   -1.79952645376942      1.17254723185608     -0.27554019303043
