12
Coordinates from ORCA-job run
  C   -0.04436780902430     -0.11415202230208     -0.35497706548593
  C   0.00917740353553     -0.08485856299866      1.18998873770644
  Br  0.26770556370348      1.64113466311184     -1.19639101872291
  F   -2.47930777985978      0.47737616228161      1.46814192136994
  H   -1.49245229083133      0.13699384311204      1.47225452229721
  H   0.69986852555334     -0.77019035245479     -0.82098155315911
  H   -1.03858296784579     -0.38848327265617     -0.71005262186222
  N   0.65192082830022      1.02645010700215      1.87208336897215
  H   0.01775602697631      1.81453306855229      1.87310451103296
  H   1.50655212267368      1.32297765718232      1.40853479046831
  C   0.53467212211882     -1.34118943637908      1.61995812137149
  N   0.91940825469984     -2.41503185445145      1.93694628601166
