14
Coordinates from ORCA-job run
  C   0.23047616349396      0.31973597053594      0.13922612538893
  H   1.50353614098430      1.92569428362293      0.39962937606397
  Br  -1.57427810062529     -2.75986970426605      1.07585526773366
  F   2.41025816660801      0.01471691229681     -0.68993211762085
  C   0.58681955905953      1.73224320798918     -0.15609102939348
  H   -0.04986378853122      0.06514115473623      1.16157258415494
  H   -0.21570157044035      2.34095772328357      0.29167177058468
  N   -0.03908136713094     -0.59930873075148     -0.71592580402976
  H   -0.40810728387142     -1.49336821763097     -0.34170183960189
  H   0.49562198451021     -0.54800911951197     -1.57470939824843
  C   0.79698618438430      2.06162970146991     -1.62448055997283
  H   1.67363885583990      1.49058464193512     -1.92695703081944
  H   -0.07470872790922      1.78687741706885     -2.22787557738107
  H   0.97027378362824      3.13307475922191     -1.75671176685844
