16
Coordinates from ORCA-job run
  C   -0.18235708223116     -0.04072848524063     -0.33376764938110
  C   0.02195052996925      0.00330901730223      1.04061658314573
  Cl  1.88291669746313      0.16335627991246     -1.49742932969850
  Cl  -2.61003284576698      0.12106676829349      2.34839622897190
  H   -1.35528540096055      0.02121061234060      1.50846628029511
  H   -0.52584512077527      0.85951152637615     -0.83348994299126
  C   -0.59497915547076     -1.26825517906653     -0.95461098469507
  N   -0.99782061785916     -2.26681974937758     -1.43227845433715
  C   0.49368235748186      1.32231373226647      1.59883618504286
  H   -0.02689049706307      2.16080213969390      1.12911004289346
  H   0.31851544764580      1.37306368263206      2.67682378154570
  H   1.56587382896706      1.43218863412930      1.39797033960064
  C   0.56452018280040     -1.22108147968948      1.73206728381151
  H   0.09914082833070     -2.13698137288558      1.36168520424242
  H   1.64439871793129     -1.28834096781756      1.55160740168843
  H   0.38736212953745     -1.15991515886930      2.80944702986529
