15
Coordinates from ORCA-job run
  C   0.61254366283226     -0.09055531735570     -0.04217025171504
  H   1.77541399253489      1.73882387460526      0.16479688993710
  F   -1.34676598959356      0.43990893851647     -0.16981970679983
  Br  2.73795401406516     -0.68893624973124      0.58076501542953
  C   0.74022385198353      1.41894546598238      0.00125162525056
  H   0.19025813736979     -0.54509814539500      0.83259621632791
  C   0.55353583847668     -0.78871169795215     -1.37594358843234
  H   0.63177327079751     -1.86550004003759     -1.22401085168058
  H   -0.40287359890432     -0.54119800549665     -1.82954095511380
  H   1.37657713431566     -0.47941924966657     -2.02221099285560
  N   0.00666202271567      1.98707189286258      1.19484450310315
  O   -0.46720725293095      3.11068963226089      1.07398053470507
  O   0.04782445069310      1.33853015363827      2.22942020138245
  C   0.25245305314648      2.05070092344556     -1.22235506989618
  N   0.02950741249807      2.57898782432349     -2.24688356964241
