19
Coordinates from ORCA-job run
  C   0.45493464266057      0.02451658522011      0.06185559908772
  H   1.85785463617145      1.51013624108777      0.44273517776353
  Cl  -1.34173566431760     -3.23770643316118      0.14761525366113
  H   2.66430041901114     -0.03534494927331     -1.01531457899076
  C   0.81395970305565      1.48581508501227      0.13254280328448
  N   -0.63106237474916     -0.33839470640565     -0.57971136266290
  H   -1.11141586577355      0.32033701189131     -1.16625223612527
  H   -0.96943328139113     -1.31730233431079     -0.50985275314497
  N   0.99530359984371     -0.82852788510777      0.95907402211791
  H   2.00514490373830     -0.77442147862585      0.87100675210762
  H   0.62316240180415     -1.77463183953644      0.89754251287119
  C   -0.08127473812084      2.13694663820772      1.19892200861008
  H   -1.12819737751817      2.16339879498588      0.88206571294209
  H   -0.02490073044625      1.58535606955855      2.14019541593913
  H   0.24417369365540      3.16630713914043      1.37654703818147
  C   0.72023242632895      2.19129283124623     -1.21109193415438
  H   1.38347247519917      1.66702588213481     -1.90267220142448
  H   -0.30335422908242      2.21712328858075     -1.60459347388237
  H   1.04658535993064      3.23067405935510     -1.10650375618117
