9
Coordinates from ORCA-job run
  C   -0.22119628796127     -0.01140354819728     -0.28241985934540
  C   -0.14057161887997      0.04418138193390      1.16659402022997
  Cl  1.45307815604251      0.02108893716859     -1.29612940431370
  F   -2.66766643064901     -0.22546812194592      1.40075021749840
  H   -1.48239043972821     -0.05467666677279      1.39211622136432
  H   -0.66405977282325     -0.93443837416830     -0.64916903892014
  H   0.27524006268997      0.98206506809240      1.54460264290432
  H   0.36786021747140     -0.81789956872213      1.60609187583526
  H   -0.73590388616216      0.84330089261153     -0.71613667525304
