16
Coordinates from ORCA-job run
  C   -0.68445551649023     -0.07268908985219     -0.39274163789745
  C   -0.98197447840110      0.27933623926047      1.01809953130640
  Cl  2.49172940390126      1.77854078586936      0.36425277256356
  Cl  -2.15409949027191     -1.44799716733937      3.55097062087573
  H   -1.99547726008661     -0.00955146281141      1.29782759107978
  C   -1.48637234956791     -1.08443177960319     -1.03041464969446
  N   -2.15303269135410     -1.85971964260221     -1.61212782139929
  N   -0.71275852178218      1.60955503815212      1.43889703449602
  H   0.27673100672538      1.83574172420013      1.37277674533066
  H   -1.00839843191225      1.69607147064192      2.40405615600248
  N   -0.12771407089385     -0.86176671362037      1.35508515976804
  H   -0.57576957523919     -1.39476016977605      2.12390703187182
  H   0.83648700022432     -0.58019032288480      1.50756659609758
  N   0.24799627511874      0.50654731087584     -1.10797328012994
  H   0.96334122942458      1.13499164136763     -0.64299959023400
  H   0.56371747060503      0.04351213812211     -1.94979226003692
