21
Coordinates from ORCA-job run
  C   -0.18225888340609      0.03569412616702     -0.30292222821696
  C   -0.03142809913691      0.03085651635874      1.12914598674937
  Cl  1.66977311490449      0.02390499206139     -1.27742590589439
  F   -2.56223069360183     -0.01641035751412      1.52748365432207
  H   -1.39130359164079      0.03453618323865      1.38623784395752
  C   -0.81749577214367     -1.21096361144858     -0.88706681026449
  H   -0.21762918933010     -2.09949170794840     -0.69333164024787
  H   -1.79602302746756     -1.31498559325215     -0.40763998489718
  H   -0.93710600526059     -1.11285753890653     -1.96794744354251
  C   -0.79639267970613      1.29541080354176     -0.88165642142587
  H   -0.89939612304705      1.21176283053547     -1.96536931915515
  H   -1.78316085098767      1.40310750635171     -0.41944919497218
  H   -0.19326182738070      2.17690666123118     -0.66712592561672
  C   0.53500840565142     -1.24137868540317      1.73015442545282
  H   1.54886822901781     -1.45433074914784      1.35665571981971
  H   0.59028464365603     -1.14752427039206      2.82033669113865
  H   -0.09454904900353     -2.11059137178441      1.52269252736680
  C   0.58144865155501      1.27897947582688      1.73544820139329
  H   0.63610305568059      1.17796400186276      2.82501210556519
  H   1.60170400236702      1.45516478070088      1.36022582991736
  H   -0.01253431071976      2.17443600792081      1.53341188855056
