18
Coordinates from ORCA-job run
  C   -0.14877512333572     -0.02350457152577     -0.31730104716763
  C   -0.12230730530532      0.11247620480843      1.14023636257919
  F   1.12396647774646     -0.23473013715468     -0.93115283348814
  H   -2.30670548289022     -0.74459540538849      1.76066087270455
  H   -1.53139276440543     -0.17571668795086      1.50859589474435
  N   -0.98665345390732     -1.06081088799480     -0.84968456175757
  H   -1.74605287816441     -1.19910664929410     -0.18273664019478
  H   -0.43287342939581     -1.90654397891191     -0.87073687394153
  C   0.48403050857344      1.37860836176390      1.69705312301278
  H   -0.04258483725904      2.27703552766554      1.35541978404655
  H   0.39932273567185      1.34088788355762      2.78733487838444
  H   1.55201652857152      1.50909833564958      1.45405905375196
  N   0.38398148842606     -1.08435107915822      1.78549702827552
  H   1.05714437756689     -1.58251765412960      1.21237171313039
  H   -0.40799648175182     -1.70692572065033      1.97694056418187
  N   -0.62909254578225      1.29772923221567     -0.93066875258264
  O   0.20124658140628      2.08080855817145     -1.38549359151645
  O   -1.83725439576517      1.50515866832655     -0.87524497416285
