11
Coordinates from ORCA-job run
  C   0.60141560719269     -0.05089718563851     -0.03783643329389
  H   1.10739752496952      1.94973358662168     -0.63213245124234
  F   -0.84526033706635     -0.39610256304319     -1.02845410442375
  F   2.11848427545900      0.20401068702770      0.87465758000068
  C   0.35623646843394      1.42766114065123     -0.04698638677207
  H   1.18667794738993     -0.50179167534201     -0.81490367653002
  H   0.20210218957905     -0.64183950912282      0.76355896025604
  H   -0.65241300351482      1.64830183933842     -0.39124728305105
  N   0.45427258223619      2.01606328419773      1.32101090492931
  O   1.09069333036710      3.06088074512410      1.45467420282244
  O   -0.18585658504625      1.47867965018567      2.21933868730465
