16
Coordinates from ORCA-job run
  C   -0.32212102355105     -0.24373171654974     -0.24188215850850
  C   0.02269630048539     -0.44290383827388      1.29081129399048
  F   0.68461110916345     -0.94781208788757     -0.93303945142688
  Br  -3.54802716192499      1.45132387626930      0.79376575631516
  H   -0.75168142010777     -1.09028835276826      1.71347152072170
  N   -1.55293041293290     -0.82116970656522     -0.67670439335571
  H   -2.32020920020068     -0.22079337112896     -0.35991363751708
  H   -1.68166684038746     -1.74626559004060     -0.28248210998605
  N   -0.19553168759960      1.12863443971428     -0.61405289754433
  H   -0.90155727595546      1.65629122891534     -0.09887325368670
  H   -0.46384984206660      1.18204976311829     -1.59245630473727
  C   -0.00930061667490      0.81311710194337      2.05039855110824
  N   0.07640005297922      1.78253597651782      2.70619468217623
  N   1.32498645048361     -1.05878011416966      1.56887679762843
  H   2.03345107159412     -0.44625873524187      1.17770952945156
  H   1.37455049669562     -1.91219887385266      1.02463607537077
