14
Coordinates from ORCA-job run
  C   0.07515286733210     -0.19297347009347     -0.06662720304437
  H   1.17055062647232      1.41461144165382     -0.80811225019157
  Br  -2.16932976788517     -0.23418045982609      0.95187192189260
  Br  3.63924224154256      0.48125551882931      1.95782259777670
  C   0.24034406489576      1.28804179841307     -0.23781092460613
  H   -0.38643351665091     -0.75215162799020     -0.87068795617013
  H   -0.58480071891559      1.64220558404387     -0.85585285108218
  N   0.97800707349939     -0.83529854084347      0.64159014194775
  H   1.69017254987030     -0.36297495786401      1.22558222738536
  H   0.96216672875412     -1.84093119262443      0.67920622976349
  C   0.32769364876584      2.07435848044268      1.08147537225136
  H   -0.51348906587213      2.76332363949888      1.16837970641601
  H   0.28551765188526      1.40741116638729      1.94099402717037
  H   1.26658561630615      2.62200261997274      1.15200896049070
