10
Coordinates from ORCA-job run
  C   -0.05671165484587     -0.26388420397865     -0.40911958613053
  C   -0.01126185471171     -0.07721331816328      1.09684042678670
  F   0.41176090340801      0.89771166284121     -1.05312610330510
  F   -2.50873301536694      0.75689343069606      1.31786074224244
  H   -1.55681384542230      0.43710583653664      1.36640098310512
  H   0.56778206894873     -1.09116288433535     -0.77658497186642
  H   -1.07880885293770     -0.40938648429538     -0.77728753446516
  H   0.64570412692942      0.75987558662345      1.34489441961960
  C   0.36829784623299     -1.25501368609926      1.79279420577667
  N   0.63607427776544     -2.23770593982543      2.39783741823675
