16
Coordinates from ORCA-job run
  C   -0.54770570554197     -0.07426926377704     -0.16207934897100
  C   0.09403703875635      0.02194067118107      1.06773733623588
  F   1.23919101511777     -0.23438553910730     -1.56084877765970
  Br  -2.97717851369819     -0.22343714528865      2.58873971299030
  H   -1.66563235462190     -0.18012870855813      1.90414273964745
  N   -0.75331909648076     -1.31480590262318     -0.71207541413506
  H   -1.27836631971300     -1.20358454720449     -1.57117402779543
  H   0.22455611702731     -1.51577995455201     -1.02099313866900
  C   0.43642577611016      1.29327498508608      1.61426343975380
  N   0.68561458997891      2.34079319893444      2.09160555688434
  C   0.76484841163620     -1.11568063248118      1.61067578616192
  N   1.29169447422408     -2.05069883960799      2.09395646629205
  C   -1.24083251506152      1.10381530070968     -0.76026977127676
  H   -2.27604597512141      0.84858916010022     -1.00723682050878
  H   -1.23060952566590      1.98103931009226     -0.11421460853916
  H   -0.67877741694615      1.30725790709623     -1.67374913041084
