16
Coordinates from ORCA-job run
  C   -0.12037862614090      0.04853402202580     -0.37946911404703
  C   -0.18507716657799      0.06412303993314      1.08822569052904
  F   1.23695065881332      0.06468051279705     -0.94703346126126
  H   -2.52845149632590     -0.54478233241412      1.60211240111221
  H   -1.51853374420857     -0.12143135676682      1.37624050259775
  H   0.17304347827141      1.01327483751450      1.49788769094211
  C   -0.78720666834154     -1.17309948213906     -0.98395772683605
  H   -0.20901888230202     -2.05816247728909     -0.71311219116974
  H   -1.79443601789271     -1.26818269992420     -0.56283784578929
  H   -0.82583829211470     -1.09878173656171     -2.07328151436148
  C   0.39548548262158     -1.15876532792632      1.77019510282630
  H   1.33176394502604     -1.52457638381858      1.32922159252098
  H   0.59155227692312     -0.93415463679755      2.82388769313550
  H   -0.34090525817024     -1.97663939465410      1.76301978503504
  C   -0.72485647355224      1.28268540952498     -0.91835927762938
  N   -1.20553321602868      2.26064800649608     -1.35895932760469
