17
Coordinates from ORCA-job run
  C   -0.04918481550528     -0.43967634821949     -0.50869027646739
  C   -1.04082207184287      0.45688681651847      1.60695578519892
  Cl  -1.40716993915304     -0.00982492316256     -3.21924266065142
  F   -3.10184190783822      0.73857151008259      3.32897674702272
  H   -2.43455175553494      0.45152456248555      2.70188238261111
  C   0.38066093586415     -1.71220893029417     -1.15753558947628
  H   0.72805160567990     -1.52263269396466     -2.17026147597130
  H   1.17648316682238     -2.17764707372992     -0.56400277084734
  H   -0.44843696692372     -2.42802739096978     -1.17368215178756
  C   0.30340226646361      0.87964310886870     -1.08770376953461
  N   0.96640841047796      1.83651353017592     -0.67484989488431
  N   -0.29805387642756      1.52218132730575      1.61238885937048
  H   0.48034458713070      1.70271852747647      0.90694097292406
  H   -0.64062391884646      2.29785072606108      2.16335298757163
  N   -0.46647753789949     -0.59286872266983      0.76510833242381
  O   -0.50859643076493     -1.71935130058334      1.33299141200959
  O   -0.04594175170223      1.03192727461920     -2.47521888951213
