12
Coordinates from ORCA-job run
  C   0.81089340582957     -0.02774596140015      0.02863295033361
  H   1.65695410997703      1.83377791228207      0.66457892312604
  F   -1.17291472250870     -0.09606503320564      0.22008766153970
  Cl  2.78765166432733     -0.22938076949121     -0.42021819113726
  C   0.73711920648337      1.47255049792471      0.20212599491130
  H   0.43586504448611     -0.53289224958965     -0.83659030316155
  H   0.69475921891905      1.89436556858571     -0.80590215648344
  N   0.76178047324298     -0.84096271702695      1.25874658576200
  O   0.89127900060519     -0.24429490460838      2.32461466481529
  O   0.64968737647451     -2.05181340059391      1.12387998326205
  C   -0.38652149479038      2.00407899436292      0.97646727047516
  N   -1.12919328304605      2.66028206276050      1.60647661655707
