13
Coordinates from ORCA-job run
  C   -0.12898159829269      0.03614802726161     -0.35544330224637
  C   -0.18074302436707      0.16894810605514      1.11669219849947
  F   1.18966871001090     -0.22844776721672     -0.87778671103636
  H   -2.39570312491142     -0.46308855024490      2.00138604657994
  H   -1.38098397282682      0.11742799429356      1.46709482538767
  H   0.27995239118787      1.11531517746817      1.41951501752698
  C   -0.93649996283848     -1.10542119550548     -0.83069435039767
  N   -1.55516982108699     -2.03051832861986     -1.20625824113401
  N   0.30911372064401     -0.98219701153426      1.83933292995868
  H   0.91527978492608     -1.56734285382763      1.27985879011047
  H   -0.52329620805515     -1.50878922233766      2.12513217945636
  C   -0.57031749120088      1.27596855667213     -1.01673473019241
  N   -0.92148940318937      2.26725706753590     -1.54103465251274
