16
Coordinates from ORCA-job run
  C   -0.03200255122789      0.01285739125455     -0.41233175595225
  C   0.14753715205372     -0.00150979732485      0.95337439012252
  F   1.25012738804120      0.07516647248428     -1.50482436279484
  H   -3.12560618279472     -0.32742652283097      2.08016703417172
  H   -2.47732627546699     -0.29019393169204      1.72164880501265
  H   0.26408307903154      0.98100050271745      1.39582047531878
  N   -0.64269622874380      1.30689526528617     -0.86960041206924
  O   -0.00759445794130      2.31636769428906     -0.56594169754654
  O   -1.71866022841436      1.32584073161226     -1.46274784142362
  C   0.53329253468126     -1.18683402912398      1.78983068807652
  H   1.51319230773574     -1.59427573291868      1.51443543247262
  H   0.57426199700788     -0.88363281326577      2.84141170782025
  H   -0.17701293028894     -2.01665859468345      1.71181350082104
  N   -0.56429695915942     -1.25795365655534     -1.00067894863212
  O   -1.55125478476273     -1.26755148782611     -1.73179512548439
  O   0.05813614024882     -2.27109149142261     -0.67580188991311
