12
Coordinates from ORCA-job run
  C   -0.37027609561995     -0.03340229746408     -0.24693055087043
  C   0.36962489306474     -0.06284891003976      0.90242596098885
  F   1.82827960311809      0.00675664950980     -0.78735745545234
  Br  -3.43886823251753      0.27374547774839      1.82990989331131
  H   -2.11365917613261      0.07606982514439      1.28163921308062
  H   -0.57557872831978      0.91898302723764     -0.71901038063687
  C   -0.78473567549716     -1.22412225323934     -0.89630984067337
  N   -1.18454128522550     -2.19173483187473     -1.43907975367767
  C   0.81538727502140      1.16008463246351      1.48783016293799
  N   1.12958932647361      2.16609721263766      2.01189242993791
  C   0.75815309418500     -1.28431888157123      1.52734450219816
  N   1.04889500144967     -2.28059965055225      2.08373581885583
