16
Coordinates from ORCA-job run
  C   0.68459703842393      0.06968564915192     -0.08735794575296
  H   1.62047431565295      1.88418506285953     -0.67942689894627
  Br  -1.83440077520878     -0.15163513272025      0.41292846441365
  Br  3.10741451057248     -0.03033609565007      0.48537360473496
  C   0.68548409242144      1.59081507230508     -0.20175357532450
  H   0.60868432690543     -0.33219802786758      0.90250723150188
  C   0.73558599450379     -0.83085885934981     -1.28708785161348
  H   -0.20176078201847     -0.78465960716297     -1.83739260166370
  H   1.54274281952294     -0.52345049760301     -1.95165957444178
  H   0.91531325535257     -1.85520369665991     -0.96030242158042
  N   0.53802325250729      2.30447153250991      1.02898450653703
  H   1.35026151473201      2.07262032544673      1.59064606414505
  H   -0.29417345280353      1.95407518396747      1.49444146642403
  N   -0.34564446528867      2.08624859904517     -1.20603659144843
  O   -1.20921969226721      2.86858218763904     -0.84057230773425
  O   -0.18017195300815      1.69504830408876     -2.36173156925078
