16
Coordinates from ORCA-job run
  C   0.48492028493348     -0.05059859348815     -0.07092933933164
  H   1.64545875686220      1.69230125652723     -0.10441663749656
  Br  -1.69504475881295     -0.33500136722471      0.23711995129513
  H   2.67505889251569     -0.10554992016604      0.25807310689892
  C   0.57876373317985      1.46397710241283     -0.10434286367943
  H   0.83934188186716     -0.49998312695756      0.83931319793122
  C   0.69515687346254     -0.76510242192672     -1.39077037469191
  H   -0.08848524416233     -0.48859445711628     -2.09710265830235
  H   1.66521421847970     -0.51206872719886     -1.80553286414790
  H   0.65693343266912     -1.84329537055180     -1.22125522379627
  N   0.11485845289570      2.04524094652928      1.24018470303117
  O   -0.43532698948192      3.15046747241865      1.21418121393354
  O   0.41948757123332      1.44207766502486      2.26305405621186
  N   -0.07853273541647      2.06049228295633     -1.21637084237778
  H   0.01514557819483      3.06530742669623     -1.15967180953461
  H   -1.06531994841992      1.83063983206474     -1.17894361594340
