16
Coordinates from ORCA-job run
  C   -0.18319652206254      0.00372864145455     -0.32159951259038
  C   -0.10176050653452     -0.04523687857627      1.17198024783171
  Br  1.54466623959104      0.02854955687270     -1.26318661748110
  H   -2.90287572876408      0.35060351107948      1.60193764823110
  H   -1.19565106044183     -0.04975882187495      1.46023664366353
  H   -0.72337215462715      0.89338734099885     -0.63843990927500
  N   -0.96251133529829     -1.13220271497207     -0.93522554581992
  O   -1.62520905467849     -0.85881343211811     -1.93114308480459
  O   -0.87349679349722     -2.24762749146571     -0.42951917718477
  C   0.45743874604978      1.26316758680742      1.70050695716706
  H   -0.12281256904287      2.10707237989944      1.32003604638944
  H   0.35175369330371      1.27441900024528      2.78998016980799
  H   1.51427416038397      1.38271026145963      1.44545699468155
  N   0.69545968607033     -1.16186197716377      1.68691464995529
  H   0.21282533109887     -2.02041014954022      1.44856376283560
  H   0.66205786844936     -1.08738681310632      2.69893072659249
