19
Coordinates from ORCA-job run
  C   -0.18409633676504      0.04808943015093     -0.34096188417444
  C   -0.13211297683592      0.11609047363240      1.12439418076558
  F   1.16392272631548     -0.17579897733258     -0.94127982720141
  H   -2.42266116616584     -0.66803909894632      1.74569042501899
  H   -1.65249298342389     -0.19788634412240      1.52942560210363
  N   -0.92904610649873     -1.10323195253640     -0.86050414498305
  H   -1.75769861294902     -1.17731914558640     -0.26891095650639
  H   -0.36930095262970     -1.91663010621595     -0.62659247504520
  C   0.48420022395738      1.35602711113398      1.73002335338386
  H   -0.05499328843032      2.27236395505741      1.45918200053642
  H   0.44498184500570      1.26481660350432      2.82053899007167
  H   1.54810789289710      1.50873821259432      1.45990112841043
  N   0.39340896905051     -1.08882247868978      1.75050638614370
  H   1.08231578265195     -1.54739848236068      1.15925941134782
  H   -0.37302251666914     -1.74715815141807      1.91095036044804
  C   -0.67636700364637      1.30629848880936     -1.02727498523057
  H   -0.70008066317292      1.12686150107717     -2.10398528800584
  H   -1.68427856557653      1.55229830148304     -0.68006483089307
  H   -0.01212626711471      2.14584065976563     -0.81576744619016
