16
Coordinates from ORCA-job run
  C   1.04071836304810     -0.00310484074214     -0.07194778803043
  H   1.83766302747467      2.03727340064567     -0.19399835524792
  Br  -2.10322106474855     -1.14412766853697      1.01176000921378
  Cl  2.86628971430527     -0.29386728676460      0.13232608650786
  C   0.86998291571394      1.54963702920551     -0.07865459563286
  H   0.60871276992448     -0.38153275227989      0.85283408173390
  N   0.50541596512033     -0.76221678042356     -1.11669441399858
  H   0.51041875257039     -0.31185641331712     -2.01834918558487
  H   -0.40421417015234     -1.12301969542673     -0.83210784164334
  C   0.13656293350911      2.01355902429572      1.16022789011021
  H   -0.81130560010540      1.48185598553978      1.25416226025129
  H   0.75489159573104      1.77582933419370      2.02989469902094
  H   -0.04016282085213      3.09089155753602      1.13836144199602
  N   0.14018726301120      1.96311187601173     -1.32199948038403
  O   -1.01975466185978      2.35341283762226     -1.24258415837444
  O   0.77866501730973      1.86651439244064     -2.37434064993753
