16
Coordinates from ORCA-job run
  C   -0.09101602901617      0.00899984840429     -0.42194766986605
  C   -0.12169419697299      0.00952723481807      1.04275818829387
  F   1.22856626868097     -0.04218722673055     -1.02911064559250
  H   -2.32019193490083     -0.17777553665566      2.16248682530872
  H   -1.35753735612169     -0.05049112774232      1.47353276737232
  H   -0.59129207390095     -0.88367367113199     -0.81804496856923
  C   -0.72867088736099      1.20121375563664     -1.00912161345969
  N   -1.23778315252811      2.14494164048502     -1.48927147585602
  C   0.42037264131437      1.24637163483397      1.72079623760034
  H   0.07246566685069      2.16363170154025      1.23408709736581
  H   0.03667642562911      1.26666963261623      2.75063898057421
  H   1.51867344059250      1.27817445466722      1.76175601822231
  C   0.42386493133370     -1.26780918150961      1.64130832835024
  H   1.52159818777650     -1.30634356669983      1.67127888883801
  H   0.03726383198079     -1.36056526004582      2.66612433841257
  H   0.06866423664310     -2.14647433248592      1.08912870300508
