11
Coordinates from ORCA-job run
  C   -0.06958556123754     -0.03100006583600     -0.38192403012577
  C   -0.05899856828589     -0.01083297388795      1.08801490198326
  F   1.22607051968157     -0.16562307893322     -1.01743178296989
  H   -2.57649394683434      0.25687668006874      1.26123629015606
  H   -1.58742619381355      0.13765579869577      1.30153499878880
  H   -0.62673142113450     -0.90085925500897     -0.75628438968299
  H   0.36982822853203     -0.92264738091761      1.52525527893096
  N   -0.66891663717841      1.15276963813277     -0.98886428045812
  H   -0.22867587120937      1.94694579309589     -0.52973395905277
  H   -1.62925531618625      1.15222635205736     -0.64188616519862
  H   0.45323476766627      0.88315849253321      1.47457313762908
