14
Coordinates from ORCA-job run
  C   0.38133209659817     -0.07329838968260      0.06149497070239
  H   1.75766445268660      1.58280003594120      0.12781609991080
  F   -1.26632440014150      0.15108989822591      0.23871657563647
  H   2.18485777581546     -0.36785184138013     -0.45169022873628
  C   0.68161170441339      1.43203580054603      0.04868458249367
  H   0.27427173640514     -0.57427349980398     -0.87984146759696
  C   0.67474611996348     -0.83321403101244      1.33587001454237
  H   1.52204778554002     -0.41109137554672      1.87449230554818
  H   -0.21462197723605     -0.80907061801713      1.97274721526829
  H   0.93135033204013     -1.86401159764194      1.09405581921875
  C   0.03227058342897      2.12221227542911      1.17669710899931
  N   -0.36321711587073      2.70839217172426      2.11418544004842
  C   0.23265709550507      2.03052856609821     -1.21134151521945
  N   -0.08890618914814      2.51775260512020     -2.22956692081595
