16
Coordinates from ORCA-job run
  C   -0.36226140259101      0.04012265654673     -0.31790967092986
  C   -0.15062020597302      0.02926350622075      1.05704866134734
  Br  1.93989190939241     -0.06498345141403     -1.51021419673346
  Cl  -2.84794028610582     -0.18439884009404      2.22963144480973
  H   -1.52219000085375      0.00909600159975      1.50718274712456
  H   0.17916886899853      0.97687713963023      1.48170054177474
  C   -0.73056329151203      1.30817420997084     -0.89400857999974
  N   -1.10899295034557      2.33431207779150     -1.33287173619053
  C   0.37079164004836     -1.21373576791706      1.73049984027687
  H   1.36330531480441     -1.44610043039478      1.32653062300206
  H   0.44521248489081     -1.06014119624976      2.80901123164302
  H   -0.28589827216716     -2.07060197264931      1.56775795898705
  C   -0.91307825361869     -1.17216123042374     -1.02096756362794
  H   -1.94465302609972     -1.33513623730404     -0.67954165936659
  H   -0.90248524330981     -1.02736513159872     -2.09942118959336
  H   -0.31340728555794     -2.05115133371432     -0.79107845252391
