12
Coordinates from ORCA-job run
  C   -0.11246695781667     -0.01652715666360     -0.40696289080833
  C   -0.03869276414462     -0.00667680330156      1.09552045573603
  F   1.13284180007949     -0.29049153705853     -1.00429829991821
  H   -2.53618026232101      0.15121234018592      1.18413600253413
  H   -1.30800287648606      0.09351442622050      1.30895066383842
  H   -0.78311762006857     -0.83045103002928     -0.70186179661318
  H   0.30494138160563     -0.95857141602239      1.51056009736691
  N   -0.63025040466694      1.19928738473045     -0.97873538123182
  H   -0.12363639636853      1.97912715924451     -0.56842532980195
  H   -1.58681487492366      1.25726082254661     -0.62483240910288
  C   0.67381140692037      1.11074808196920      1.63950881668364
  N   1.16642756819056      2.08360772817817      2.09308007131723
