14
Coordinates from ORCA-job run
  C   0.50482570944468     -0.04009630707168     -0.02022228547633
  H   1.64053353880016      1.66222838481761     -0.51373227258834
  Cl  -1.86084243130853     -0.16156573213225     -0.58271119350844
  Br  2.60984765941932     -0.38870973116160      0.93161978140733
  C   0.63183336034628      1.46995394756956     -0.12788605297597
  H   0.04389559014236     -0.54580857356774      0.80451370007135
  N   0.77294585707919     -0.82959107926864     -1.23250758338962
  O   1.10901537156968     -0.19314841025148     -2.23126045226248
  O   0.68198984519486     -2.04646084444760     -1.14917283616886
  N   0.40712419092034      2.02602881863147      1.20702488378379
  H   0.39292976801709      3.03684667601997      1.13878946614241
  H   1.20145344281353      1.75625576862260      1.77770828741705
  C   -0.26120344153392      2.14181273436170     -1.08186284656300
  N   -0.78963846090509      2.89959434787806     -1.80811059588889
