12
Coordinates from ORCA-job run
  C   0.17160776133806     -0.10485214533561     -0.40433341304422
  C   0.09639963990352      0.07238514660911      1.09081064061648
  Cl  0.11658581012655      1.44880246214455     -1.31173512845095
  H   -2.25772061342009     -0.24784160197914      1.22425534521230
  H   -1.16920182903994      0.23980474301671      1.23818670716983
  H   1.07580744275474     -0.62352086400031     -0.74185722335912
  H   -0.72313883086547     -0.67114666026807     -0.69075279203127
  C   0.97731059002800      1.06673614646907      1.63825614208362
  N   1.67557798624976      1.90246225213674      2.09431507806609
  N   0.18793312896995     -1.20338258933208      1.77676170711068
  H   -0.77655940489841     -1.56028681226930      1.78273001477639
  H   0.77332831885334     -1.86046007719167      1.27062292185015
