19
Coordinates from ORCA-job run
  C   0.64550772256582     -0.05455521378232      0.04136681079965
  H   1.74015570994301      1.75947079613524      0.13241625260673
  F   -1.37119623587992      0.01657321925463      0.26147042612461
  Cl  2.75902604854915     -0.39860203491820     -0.56283950193684
  C   0.68825660132351      1.48186872936857      0.03571503853031
  C   0.15500619658003     -0.77625049487663     -1.11370524768235
  N   -0.14742193495114     -1.38009900601989     -2.07795222031928
  C   0.76414008664169     -0.80023828547879      1.35185226493804
  H   1.59187983840462     -0.39693677287584      1.93686059979528
  H   -0.18068828509135     -0.69563614345316      1.87838298133827
  H   0.96783184450291     -1.85351328240297      1.15976988451727
  C   -0.04800420949793      2.11085450258228      1.21900197184221
  H   -1.11174148820118      1.90629422703312      1.14253984501111
  H   0.31369959350429      1.71543241441851      2.17211137382151
  H   0.14223918866177      3.19087126137202      1.21617910348012
  C   0.16683876566253      2.02883380837147     -1.28606200714019
  H   0.74936470056852      1.64440497388927     -2.12682846116267
  H   -0.87334166138019      1.72287162644505     -1.40275072849636
  H   0.23110751809387      3.12219567493766     -1.29418838606746
