13
Coordinates from ORCA-job run
  C   -0.55648498819680      0.37810736607057     -0.02685609727954
  C   0.01597374234616      0.12707264368861      1.22566837897678
  F   1.22277957190895      0.65283819319970     -0.98466264636640
  Br  -2.79295118606863     -2.51088843127017      0.68200959659605
  H   -1.31465687390317      0.42615044915491      1.13317475307868
  H   -1.05203974228118     -0.43044219102697     -0.54791372939396
  H   -0.69459267735925      1.40680418698113     -0.31304311954966
  N   0.88092550374618      1.11135459380006      1.63220124361760
  H   1.37394746120177      0.89630084250011      2.48422030991069
  H   1.43972510715049      1.31369927911819      0.79638583760175
  N   0.00619859345945     -1.08582814650446      1.92191788604593
  H   0.89625514341843     -1.55185261838388      1.79681775587536
  H   -0.76623965542239     -1.68936616732782      1.61713983088672
