14
Coordinates from ORCA-job run
  C   -0.12753064682859     -0.00377852113191     -0.39835620140353
  C   -0.07995833640103      0.07337971739769      1.07161114554700
  F   1.18521876555073     -0.03640150634362     -1.04371854042851
  H   -2.58314780209626     -0.22347962185573      1.35955031920422
  H   -1.61334585884507     -0.08093962116247      1.35952241748367
  H   0.43424917645427     -0.79774837672061      1.50341987628118
  N   -0.76981341695555     -1.22539025914336     -0.89111256345156
  H   -1.68329710284341     -1.23432886882376     -0.43385517150695
  H   -0.25414785459146     -1.99129603368018     -0.46415401951167
  C   -0.83338130446474      1.19051305099760     -1.01035794654455
  H   -0.82817750709870      1.10009118852257     -2.09931710443653
  H   -1.86544993746510      1.22457431513131     -0.64658194360507
  H   -0.32329863379596      2.11132973809032     -0.71698453685425
  H   0.37282045938088      1.00584479872215      1.43458426922655
