18
Coordinates from ORCA-job run
  C   -0.21115136806584     -0.03155721923725     -0.31212197033099
  C   -0.09202142797684     -0.02688423741240      1.11733456319087
  Cl  1.64986796491557     -0.07063373326496     -1.26564328898536
  F   -2.63682584332084      0.05568081443406      1.45180134684987
  H   -1.48044175932804     -0.00951155546694      1.37413441159910
  H   0.30567122272877     -0.97432382228062      1.49536793860889
  C   -0.84571287807526     -1.29122955506783     -0.86256270743905
  H   -0.30746680270049     -2.17451702444397     -0.51229193076441
  H   -1.86942191079442     -1.32073533202548     -0.47821696065219
  H   -0.84996894120196     -1.29489468014579     -1.95444866104514
  C   -0.80711334473170      1.22524721058185     -0.91226555900846
  H   -0.89044570578719      1.14013313639443     -1.99765329199524
  H   -1.79906540753596      1.34179101598218     -0.46497404262581
  H   -0.20078062480101      2.10233863329238     -0.68452768624218
  C   0.53557127616741      1.18384017813608      1.77802422073939
  H   -0.09182394575985      2.07437058458378      1.66802246991076
  H   0.64798002334804      1.01288399965090      2.85398097818266
  H   1.52888947291961      1.41610158628957      1.36690017000731
