18
Coordinates from ORCA-job run
  C   -0.30448200122856      0.03020402240266     -0.24629527200299
  C   -0.29040857069963      0.13564312855929      1.19280991638358
  Cl  1.75237893494579     -0.12857911932074     -0.86943577054463
  H   -2.66963782073399     -0.46242879394967      1.35637530725045
  H   -1.56171967616209      0.02432498850908      1.33542448747574
  N   -0.89723019702625     -1.15622189405136     -0.76182047103304
  H   -1.86213787314292     -1.11687759138989     -0.37790499313072
  H   -0.46461921658619     -1.94715468696112     -0.29665151675393
  C   -0.80177660057687      1.23908189067879     -0.97894001736893
  H   -0.71838385771549      1.07812692473428     -2.05366618058420
  H   -1.86332340771222      1.35335844887797     -0.70985939113198
  H   -0.26996518171034      2.13563949317273     -0.67320646842748
  N   0.16665259779019     -1.01968740312011      1.94029698163871
  H   0.94918362837596     -1.46032382056910      1.46369101419961
  H   -0.60145665146345     -1.68148690539943      2.02329085181456
  N   0.20690427474597      1.40094324811564      1.68599087290595
  H   1.21886165017056      1.39608724471536      1.55879133302081
  H   0.04172996872954      1.40201082499562      2.68678931628851
