16
Coordinates from ORCA-job run
  C   -0.02360848645390      0.16548043238470     -0.28551159255778
  C   0.12521094622819      0.13275665143498      1.22184274766750
  F   0.52689681997780      1.39753979507206     -0.67666670485794
  H   -1.92684907151037      0.79832419370055      0.66990360573809
  H   -1.02600462440429      0.70471963867380      1.41043391026315
  C   -1.54861073704950      0.27864403395021     -0.61728484255130
  N   -2.22568061598395      0.08161849679864     -1.58544737250229
  C   1.22178665670215      0.86142831890311      1.78577246719634
  N   2.09840383018135      1.50237980831467      2.24227017672791
  N   -0.05455381700309     -1.17218570570001      1.81190069213235
  O   -0.91511276244118     -1.88769499521001      1.27533073953792
  O   0.55765801730788     -1.47119324629050      2.84654392585434
  C   0.64977981498918     -0.91338445589712     -1.09435831852182
  H   0.38179473556061     -0.75209381253913     -2.14079006600691
  H   1.73457444856040     -0.85449007504010     -0.97287320410133
  H   0.28762484533870     -1.89467907855586     -0.79407616401825
