15
Coordinates from ORCA-job run
  C   -0.39739857609342     -0.00127348278029     -0.23976809675652
  C   -0.14105318791187      0.01218380781738      1.12443241571776
  Cl  1.73749881101177     -0.22421496370006     -1.36541188214033
  Cl  -2.85000597281788      0.36907854799024      2.28137104930455
  H   -1.52688600936886      0.18174733312104      1.59689710716420
  H   0.23130513095915      0.95801831136538      1.51960352459279
  C   -0.86904432865881      1.24212673013137     -0.93642105639251
  H   -0.75635604333187      1.14229501392099     -2.01423827589374
  H   -1.92324958221066      1.41846326760979     -0.68986186715984
  H   -0.27474974049932      2.09366920587716     -0.60283849727438
  N   0.33558052712944     -1.15281438454047      1.81937627408480
  H   1.15710999095330     -1.48332393592590      1.31532088158536
  H   -0.36020485308356     -1.88903229882116      1.77304133140488
  C   -0.87887226865642     -1.24950318047305     -0.77581025832446
  N   -1.35867389742098     -2.25539997159244     -1.15788264991256
