14
Coordinates from ORCA-job run
  C   -0.05502435538324     -0.08065674419328     -0.48180937633793
  C   -0.19160149881746     -0.03082589462862      1.03172395387957
  Br  1.77930346754156      0.02479190709208     -1.08717153096158
  H   -2.15910148495974      1.37435935328954      2.13883432926243
  H   -1.29315597206694      0.03182839997280      1.27567457682371
  H   -0.57753395436954      0.78535865830803     -0.89117259647906
  N   -0.73920572132038     -1.30361525616657     -1.07828551163068
  O   -1.78525682847031     -1.62488210779925     -0.52081780958508
  O   -0.27372646135090     -1.84096167035248     -2.07628767099192
  N   0.32251719300877      1.23279651196569      1.51405694123418
  H   1.08643804077275      1.09346844258589      2.16281181237598
  H   -0.52254654453945      1.62446963763913      2.00414493533321
  C   0.38592362023480     -1.22065176047156      1.64978953257809
  N   0.86450049972007     -2.16309947724137      2.16616841449910
