14
Coordinates from ORCA-job run
  C   -0.28361441562489     -0.02713651397232     -0.27398271070165
  C   -0.12168418746667     -0.01884768798412      1.19391448614905
  Br  1.54653765857243     -0.02240875914995     -1.33092706581742
  F   -2.63350825853933      0.06001565053947      1.13817777856027
  H   -1.35682493785838     -0.04216206871815      1.41123608374833
  H   0.36493302471260     -0.94644654895118      1.50888899954179
  C   -0.92745664937722     -1.24420915487595     -0.76178336602469
  N   -1.37796970084070     -2.25459234218611     -1.15853848440768
  C   0.52610818413207      1.23017963684786      1.75281064403975
  H   -0.08374310224351      2.10928685566331      1.52596653042075
  H   0.59306491415127      1.15522551443005      2.84198415581952
  H   1.53675063212300      1.40126808883205      1.35991631391902
  C   -0.94661181157254      1.16734689968385     -0.79715339157022
  N   -1.39590135016812      2.15470042984119     -1.24964997367683
