14
Coordinates from ORCA-job run
  C   -0.12735952120000      0.04380127866274     -0.37836993786185
  C   -0.13286435765190     -0.13178016883540      1.10462184827532
  Cl  1.55513625188510      0.32275902134490     -1.05103635852543
  H   -2.51093145189252      0.56862689365145      1.37689101064909
  H   -1.35798425685361      0.02969206984152      1.37490932787347
  H   0.28944884655654      0.77644093706602      1.54467062457558
  N   -0.99130575145332      1.08239047135707     -0.82766782205624
  H   -0.50469816023150      1.96800018284117     -0.79094275428985
  H   -1.77579228828764      1.10371339568440     -0.14489306857130
  C   0.51846428486401     -1.29431850324451      1.64087513934506
  N   1.04109919650641     -2.22341187735906      2.14341560715929
  N   -0.63639880877167     -1.24483574620400     -1.07729918723083
  O   -0.46938074494694     -1.34023653520811     -2.28492491316561
  O   -1.25059323852296     -2.04144141959819     -0.37338951617671
