16
Coordinates from ORCA-job run
  C   -0.15120818178237     -0.04421157245681     -0.40719933763957
  C   -0.16293961863759      0.00176394262367      1.07134922626570
  Cl  1.56100612138415      0.06915653090241     -1.20120084250031
  H   -2.50440185315545      0.29339028415823      2.16374009703088
  H   -1.31268630538554      0.06792647849643      1.41503614735160
  H   -0.65649566657079      0.83111703012036     -0.82384508950469
  C   -0.75336183088382     -1.25172141651263     -0.96443050256817
  N   -1.24624018638472     -2.22007591644827     -1.41203384342721
  C   0.41699425638103     -1.21962047998478      1.75242714916963
  H   1.50937282773369     -1.27270236767329      1.66117300368095
  H   0.15365568820520     -1.17679978341317      2.81456751568368
  H   -0.00948493541668     -2.14453083562407      1.35250347883651
  C   0.41125177312512      1.29680665121037      1.61059199321614
  H   0.09197562354487      1.40293125349144      2.65259071962572
  H   1.50589158785324      1.33013691758604      1.55680081228793
  H   0.00979069998966      2.15883328352408      1.06668947249118
