18
Coordinates from ORCA-job run
  C   0.89527514593884     -0.04208815748025      0.18991266822796
  H   1.74163082138602      1.86323637174831      0.38197230812221
  Br  -3.13176753278434      0.14040493274938     -0.74897303929142
  H   2.96915630592676      0.20104809397578     -0.97707127880978
  C   0.76866971527741      1.46518010336940      0.09370361601112
  N   -0.07382926570487     -0.77707947526013     -0.29542592070264
  H   -0.95758971101685     -0.37723944162549     -0.65477122577931
  H   -0.10034339116243     -1.76839469639389     -0.11198243644444
  N   1.75620479935395     -0.55163098525674      1.12545097815051
  H   2.67544969002384     -0.20888154867461      0.82800449836255
  H   1.76723897014290     -1.56429391105302      1.14481778756291
  N   -0.24730723290968      1.93457546576132      1.04242059416921
  H   -0.07184851910959      1.53058781862722      1.95642954413689
  H   -1.16796572656489      1.62502909241184      0.73737629502185
  C   0.43052092316594      1.93978047003961     -1.30697100344670
  H   1.17920515085331      1.55184580111878     -1.99715805728998
  H   -0.56966838294750      1.61454353742456     -1.60373888227198
  H   0.44218824013115      3.03208652851790     -1.31282644572902
