11
Coordinates from ORCA-job run
  C   -0.22294419858549      0.05326460568481     -0.23900091945640
  C   -0.08992420693012      0.16916053222637      1.18762427893182
  Cl  1.47492431015319     -0.27083494976655     -1.26920656914518
  F   -2.50051435088814     -0.41116082198597      1.63380471258477
  H   -1.43134527893172      0.07488801717613      1.45924035340315
  H   -0.78108712712931     -0.82763559275660     -0.54780268227051
  H   0.40578298275602      1.08927642727150      1.51040159534929
  N   0.40214117655734     -1.00271206295169      1.90767250421099
  H   1.11776213351141     -1.46978102600803      1.35762056862410
  H   -0.38345180875019     -1.63629582599126      2.00563894583841
  H   -0.57658363176298      0.95596069710128     -0.73511278807045
