14
Coordinates from ORCA-job run
  C   0.27325643427847     -0.01707301694928      0.04638620313671
  H   1.51371914008150      1.66941698044568      0.31797744506861
  Cl  -1.58852347885707     -0.29458939847066      0.27214695239623
  H   2.30694353879567     -0.26139693707060      0.07751463253431
  C   0.47576455242630      1.48191223550916      0.04795879607918
  H   0.48982698747953     -0.54980333317179     -0.87099230468736
  H   -0.15245254150079      1.90344940724617      0.83491912415639
  N   0.97686352405133     -0.72262035993049      1.14087792884038
  O   1.05228306869504     -0.07278054106412      2.21616720710857
  O   0.90592832029367     -1.97405273550855      1.11036816625325
  C   0.15327176581075      2.08827636526115     -1.31213590079899
  H   0.83615550585578      1.69734963223461     -2.07204221653335
  H   -0.86943686049115      1.85428124594470     -1.61704110373063
  H   0.25959004308099      3.17730045552403     -1.29122492982333
