15
Coordinates from ORCA-job run
  C   -0.27330974313232      0.00793671045727     -0.26873251372802
  C   -0.15718920508309      0.08976500198542      1.18474225846209
  Br  1.65956706228821     -0.12984877957315     -1.24411869296785
  F   -2.68168827473436      0.34018160288483      1.44009389295303
  H   -1.43566943833844      0.21962284215658      1.43433014154102
  H   0.32318717133799      1.02994794843943      1.47578591363322
  C   -0.86849181822844     -1.25457637902823     -0.69540343589770
  N   -1.36516421285806     -2.26762266209706     -1.02783828570488
  N   0.40906583409007     -1.04782335661261      1.88375917219553
  H   1.22858222198162     -1.39024470068696      1.38668744318769
  H   -0.27305593677847     -1.79642941195346      1.90134913918075
  C   -0.95053343051568      1.20553411818925     -0.90448026535569
  H   -1.02661945514772      1.10298108460299     -1.98744172188712
  H   -1.93703317687167      1.25754870564292     -0.43548902287940
  H   -0.38255759800964      2.10751727559278     -0.66755402273267
