12
Coordinates from ORCA-job run
  C   -0.23796239120290     -0.06365686501843     -0.27590519602547
  C   -0.19281161669174     -0.17564781640123      1.19379933683643
  Br  1.50869288220613      0.57601025714478     -1.21462673497697
  H   -2.46898225115351      0.66223516338871      1.71260303196575
  H   -1.39647961141834     -0.08512561912488      1.45171505454789
  H   -0.92759528217417      0.73450113005085     -0.56855863971820
  H   0.26233896837896     -1.11056614576035      1.53192496118710
  C   -0.58068122998455     -1.30981221374334     -0.93853357043337
  N   -0.87027917995132     -2.33223945618492     -1.44221721104951
  N   0.27906851944631      0.98808009551628      1.90875361151807
  H   -0.54515211488054      1.58062850633398      2.04374449193492
  H   0.96820330742565      1.49344296379854      1.36385086421338
