17
Coordinates from ORCA-job run
  C   -0.29500111365518     -0.09341671864599     -0.27931826806668
  C   -0.14346759996910     -0.04173152412571      1.22285435951040
  Br  1.31173099679223      0.41851827585433     -1.30080398553809
  H   -2.72846865945647      1.07555051011652      0.65834474405233
  H   -1.19442400951631     -0.04065737676286      1.55858981294164
  H   -1.04876862797522      0.69084847376465     -0.45473873183245
  C   -0.84009133896330     -1.41184544335437     -0.78472149519582
  H   -0.14996870763904     -2.23810972422765     -0.60417486106609
  H   -1.78839577122212     -1.58345465692071     -0.26551568882762
  H   -1.04595911829791     -1.35157907967595     -1.85499883082823
  C   0.51720999042134      1.20281166241881      1.77714742843901
  H   -0.08110746543029      2.05208611283568      1.43910762681525
  H   0.49402079508119      1.17704095676780      2.86986344769285
  H   1.54694974653938      1.30409930776999      1.43039492459088
  N   0.52083038817275     -1.24376136675264      1.80870283949857
  O   0.04805760781554     -1.69226621821202      2.85586246196163
  O   1.52404288730251     -1.69703319084989      1.25416421585244
