18
Coordinates from ORCA-job run
  C   -0.25878031409530     -0.04568970014998     -0.27355687230054
  C   -0.20729375524263      0.00481996747481      1.20508931018915
  Cl  1.51340194298367     -0.20135287059917     -1.08956337686551
  H   -2.66044216855475      0.54882512228498      1.75601366466864
  H   -1.38924570905487      0.17147643633669      1.48056228675958
  C   -0.92497694679494      1.16194757225918     -0.88973483115086
  H   -1.09697715665540      1.02576091800393     -1.95881972413999
  H   -1.87927688332097      1.28764476203054     -0.35255149714641
  H   -0.30937365331459      2.04848039057073     -0.73842733573339
  C   0.46534555712204      1.24182298507425      1.76241149349992
  H   -0.13980480064710      2.13291433928123      1.56933438548187
  H   0.53228800562672      1.11638028092663      2.84454014838559
  H   1.47519168832316      1.39329482121117      1.36137111076548
  N   0.25173725135951     -1.21163439369297      1.85657581050235
  H   1.05046378774727     -1.59911943632817      1.36144539199285
  H   -0.49446021479824     -1.89833685156289      1.82914253075703
  C   -0.90503124791718     -1.27939228384841     -0.71782518783326
  N   -1.45268538276641     -2.25892205927256     -1.06947730783249
