14
Coordinates from ORCA-job run
  C   0.71937152483376     -0.20139017213390     -0.05118282519259
  H   1.74889228930450      1.28846384707106     -1.23376970012724
  F   -0.85188537693785     -0.25591661639972     -0.64702878354048
  H   2.55577032507958     -0.18742971302914      0.29375762643609
  C   1.07695863576032      1.23074578668115     -0.38383498428411
  H   1.05633975219990     -0.96667553108909     -0.72419684028086
  H   1.48024520138827      1.76246430815169      0.47209378895351
  C   0.32683010451700     -0.54397547022324      1.37129611510050
  H   1.16472854996451     -0.51351853977147      2.06166865947467
  H   -0.44336264590285      0.16487372935211      1.68334619859197
  H   -0.12694599874694     -1.53753566607853      1.38461381955210
  N   -0.14732944284082      2.05412034067858     -0.78315142594193
  O   -0.83748966485910      2.51633383716880      0.12548938790260
  O   -0.34671325376028      2.26162985962169     -1.97867103664424
