12
Coordinates from ORCA-job run
  C   -0.12226489474763     -0.05907894186627     -0.43360386237801
  C   -0.30347492890088      0.00603472275903      1.02370175668519
  Br  1.86897821353370      0.01289266951785     -1.08174470717818
  H   -2.50439916544999      0.54724434440024      2.07077775455532
  H   -1.48680384255236      0.03431683130841      1.30448835281401
  H   -0.51733590465486      0.83441652390832     -0.91657428694086
  H   0.10310123329829     -0.88482695755740      1.51936820234758
  C   -0.64898053116666     -1.27166179228193     -1.04019193784666
  N   -1.09491297369411     -2.25251973068702     -1.51121228699766
  N   0.11177133087270      1.28565559813353      1.56159728963643
  H   0.95134771360265      1.19160588939544      2.11739344716761
  H   -0.66265625014084      1.56675084296978      2.17361027813522
