14
Coordinates from ORCA-job run
  C   0.42845124902138     -0.06863678577018      0.07118160924928
  H   1.68144530404765      1.60456193101662      0.17723454042370
  Cl  -1.75829686667322     -0.05610146886243      0.20174461942672
  F   2.37835961483688     -0.21900183254423     -0.44434242035419
  C   0.61880979554441      1.41359844386500      0.04043057195103
  H   0.39308793883326     -0.60042290891839     -0.85675544256640
  H   0.00656833739453      1.93882678478804      0.76995896079441
  C   0.70455275311121     -0.76456579880756      1.37601289981836
  H   1.77961691174848     -0.73519153771647      1.53346075121234
  H   0.17026442611127     -0.28209178473206      2.19687671162186
  H   0.36728654427156     -1.79972282580913      1.32159981429053
  N   0.27321545644314      2.03721637690357     -1.26947865217369
  O   0.10523666481335      3.25867583846892     -1.24926938407685
  O   0.22681187049612      1.34504556811832     -2.27822457961711
