15
Coordinates from ORCA-job run
  C   0.40278781916267      0.55553770191434     -0.56173005985167
  C   0.33487574579506      0.28012309158481      0.75517835145193
  Cl  1.23478758554486     -2.39386750856700     -1.71917821251069
  Cl  -3.15437550798949     -0.99276194088139      3.25804984170841
  H   -2.20111076399166     -0.21083726162813      2.85859482433245
  H   0.63050006042218     -0.29777051348334     -1.22254636660889
  C   0.18138369613225      1.84059070270402     -1.13299822773921
  N   -0.02392786254243      2.86785907281986     -1.67134378499457
  C   0.53753262223512     -1.07543316015904      1.35516057665588
  H   1.57910402802903     -1.37407187382978      1.22575607239784
  H   0.27335963799628     -1.07992388686927      2.41185096799060
  H   -0.04480419832674     -1.81894862617675      0.81238231585048
  N   0.01862556953717      1.37105846827287      1.69204151913582
  O   0.58031089451833      2.45391286337364      1.55160017236965
  O   -0.80566932652259      1.13029287092514      2.58265200981197
