16
Coordinates from ORCA-job run
  C   0.30805446925120     -0.07823012419203     -0.11412430851071
  H   1.58947828687006      1.60208439445611     -0.52111420650650
  Cl  -2.09867762367510      0.17746890174038     -0.10080352109028
  H   2.64550188505989      0.27509434010720      1.12515216475334
  C   0.59732571605005      1.40166292270185     -0.10816010686628
  H   -0.12745728844913      1.82561782302880     -0.80723880064305
  N   0.60944928871512     -0.79711788591983     -1.26960599644413
  O   0.73052408228179     -0.12409510324888     -2.32107376097487
  O   0.70168475084704     -2.04439661703630     -1.23205288557517
  N   0.44268811440704     -0.91655907287170      1.11716102516753
  O   -0.36068126787014     -1.82634738038784      1.28932389028760
  O   1.35221660505286     -0.67348150793196      1.93778448666262
  C   0.42381473421678      2.07943821743013      1.24604614384392
  H   -0.54875374714239      1.82503697102380      1.67052681878545
  H   1.20632290974211      1.78681637902370      1.94937160113995
  H   0.46696908464284      3.16488774207658      1.11653745597056
