11
Coordinates from ORCA-job run
  C   -0.25601560640556      0.07910448215668     -0.38096461361056
  C   -0.41762976092327      0.26399460562140      1.13176889103287
  Br  1.50976659411834     -0.74587924941633     -0.86085501842194
  H   -2.39020549494120     -1.28519323077821      2.31096085803622
  H   -1.26608682372119     -0.38087994405250      1.55776920155076
  H   -0.62990516982576      1.31386162809221      1.34772631897560
  H   0.49708375796570     -0.02500295309450      1.64802346213399
  C   -1.26111779641391     -0.80380959943637     -0.98928531231282
  N   -2.05235369864477     -1.45956287373232     -1.56013687805389
  C   -0.28200811652166      1.35722927810437     -1.09606126219355
  N   -0.30902788468671      2.40635785653558     -1.62696564713669
