14
Coordinates from ORCA-job run
  C   -0.20318932720468      0.01259912160738     -0.34179111486367
  C   0.13618891370815     -0.19446303504331      0.96117448723136
  F   1.62162627934533      1.13006534132669     -0.94379317958924
  Cl  -2.62213077923807      0.00003558151922      2.13832591929074
  H   -1.38982663539246     -0.13314588840107      1.34754411399902
  H   -0.39715492386809     -0.82202410076792     -1.01383937728547
  H   -0.47765309595067      0.99654672279635     -0.68245749840577
  N   0.73149101030563      0.92273438400536      1.64890575509665
  H   0.02668538282866      1.52010329907074      2.06735507388535
  H   1.20160354738919      1.40384443958458      0.86616067423372
  C   0.54570098158681     -1.54567439682587      1.47994142225885
  H   1.63494049951729     -1.63200610547119      1.41924997235574
  H   0.25911156240583     -1.65035231156920      2.53063186947205
  H   0.08635658456706     -2.35962305183176      0.91036188232067
