19
Coordinates from ORCA-job run
  C   -0.33354528320658      0.02184111252981     -0.30029826519745
  C   -0.23699580935029      0.06588585496283      1.12698878588603
  Br  1.87727356514934      0.02507040432699     -1.10811192034871
  F   -2.74925380135814     -0.41401991327145      1.16881334667327
  H   -1.57688928513857     -0.06010413551629      1.24072441146204
  C   -0.89303200569142      1.24256700165086     -0.97941601397485
  H   -0.79589318571326      1.13424182399970     -2.05858885545156
  H   -1.95428046248997      1.27693388741203     -0.70478402638028
  H   -0.40643913983345      2.14868549771210     -0.62978809577377
  N   0.28438349492580      1.33139732733740      1.61547788115460
  H   1.28755541965705      1.34896258704226      1.42557952185822
  H   0.15769779934749      1.37535614433221      2.61997362046785
  C   0.31067889555976     -1.16868287459941      1.81988497146244
  H   1.35043354538173     -1.35650588581341      1.51490000988616
  H   0.28981207566508     -1.01729539529214      2.90443291546358
  H   -0.29169757600320     -2.05677996415225      1.61447898063305
  N   -0.84640302817265     -1.17916969710832     -0.89991691509937
  H   -1.78008769291354     -1.25779667445981     -0.48645329817349
  H   -0.29986752581519     -1.96638710109310     -0.57233705454776
