16
Coordinates from ORCA-job run
  C   0.47353963237475     -0.06397215791119     -0.03669968061090
  H   1.61706589036766      1.64070910778367     -0.50706079763804
  F   -1.29321523109205     -0.02527772946768     -0.48448084185870
  F   2.09765075666267     -0.17192420358128      0.65804526582864
  C   0.61182255691503      1.44731736918426     -0.13658209153720
  H   0.11172808812120     -0.47409994998845      0.89300792626489
  N   0.81274302833806     -0.86920985663513     -1.16672507360847
  H   -0.04789336400763     -1.30327835541526     -1.46582951796373
  H   1.48480427378361     -1.55034728029993     -0.84531326160851
  C   0.36121689265287      2.09397951759296      1.20583544202852
  H   -0.65775786369683      1.87451773964183      1.52456822144154
  H   1.07804846665133      1.66001541799499      1.90221795642964
  H   0.48875588911380      3.17806342599307      1.16849019006398
  N   -0.28132917029799      2.05346813503229     -1.18638164355743
  O   -1.20486334750086      2.78689051302259     -0.83731979713444
  O   0.01853350161435      1.83550830705324     -2.35688229653982
