15
Coordinates from ORCA-job run
  C   0.80574816116006     -0.17537618060605      0.16087345876995
  H   1.60425421781855      1.73452194167455      0.46755786708408
  Cl  -2.69500815403721      0.21813515239775     -1.75166542672195
  H   3.04843953549797      0.05742684599949     -0.43206943575315
  C   0.64013618194622      1.32207928802870      0.18326078207471
  H   -0.08035870553641      1.50016355874346      1.00262804236090
  N   0.02598977818331     -0.84527857771720     -0.64096039909772
  H   -0.69497746905027     -0.39279940216650     -1.22500629041287
  H   0.01489066723966     -1.85225615936817     -0.62027130766315
  N   1.36767364910088     -0.77163247552341      1.26880570537196
  H   2.32821301104645     -0.42230142133477      1.27008891343882
  H   1.40862795164896     -1.77873526065808      1.16967128866179
  N   0.21974881198267      1.84087793341268     -1.09892537324810
  H   0.53988946348007      2.78768491848368     -1.22566889796015
  H   -0.78536710048089      1.79080983863386     -1.22229892690511
