11
Coordinates from ORCA-job run
  C   0.37869340086856     -0.17380444024096      0.12274241027309
  H   0.52530941429992      1.66543420740838     -0.90914034415534
  Br  -0.57207881019493     -0.99018965461228     -1.38731294705747
  H   2.67030779631204      0.89327191520381      0.11199648440968
  C   0.25059083397687      1.34056724813739      0.09776979426616
  H   1.48080862103677     -0.30885930989308     -0.02696177041853
  H   -0.76611571023455      1.66661677946635      0.34285744080136
  C   -0.08604379458751     -0.78702171709500      1.35195333018449
  N   -0.44809706478160     -1.31031233242932      2.34102995272161
  C   1.23200099040008      1.93556356132221      1.04527242946437
  N   1.41610432290436      2.66945374273250      1.96367321951059
