13
Coordinates from ORCA-job run
  C   0.98887973841807      0.01778072984335     -0.04801523542356
  H   1.88504039982936      1.80395183432536     -0.80376676375087
  F   -1.70417556264334     -0.13254606819711     -0.21051960608930
  Br  2.69233812978279     -0.45604821757226      0.90516353008042
  C   0.97713854698065      1.52328710013133     -0.25360370339641
  H   0.19063324178748     -0.27588439162577      0.63056926932418
  H   1.03477307614355      1.98560116903913      0.74446948613279
  N   0.94088465638884     -0.68187562644753     -1.30269603671284
  H   0.11931231936238     -0.26915037644802     -1.74317807032189
  H   0.65554802579055     -1.63303724402584     -1.09125445807988
  N   -0.22392608944988      1.87124216702500     -1.01464654650429
  H   -0.47024541357397      2.83272294064538     -0.81225523933590
  H   -0.98771106881651      1.23284598330695     -0.67566662592243
