14
Coordinates from ORCA-job run
  C   -0.18594802415678     -0.09064426868628     -0.28885029210444
  C   -0.10321424295843      0.00953108231122      1.23135520382748
  Cl  1.44442197589916     -0.32706527233712     -1.06661371699806
  F   -2.57250797117377     -0.10253892618958      0.60764869806221
  H   -1.24023852192476     -0.00088528061982      1.38778829825127
  H   -0.80982329154095     -0.94044028753118     -0.54762593744404
  C   -0.78088334494264      1.11628898850858     -0.85822384960210
  N   -1.10874096144073      2.12155934561158     -1.36949407681561
  C   0.59995906488449      1.27752213006305      1.74304138329950
  H   -0.08546129406513      1.86330121706804      2.35868745958385
  H   1.48630439195101      1.04586068623984      2.33740689874698
  H   0.91944287026853      1.91130470528653      0.91254435975471
  C   0.47273443303070     -1.20008649409258      1.78931440708850
  N   0.93567491616932     -2.16253762563228      2.28264116434973
