11
Coordinates from ORCA-job run
  C   -0.23294278115792     -0.02338299527345     -0.35617863768568
  C   -0.18445080242302     -0.01461925220605      1.04306165809757
  Cl  1.82929433546966     -0.01536765037176     -1.36616805502683
  Cl  -2.86075928764995      0.04431780980385      2.28989815729764
  H   -1.58391769173637     -0.01690133713275      1.52737035489804
  H   0.14957960387242     -0.93318071162140      1.51766660004097
  C   -0.67247404276098     -1.24402923064905     -0.99249637384554
  N   -1.08403921288597     -2.24579231753366     -1.45366531749795
  C   -0.68873023621796      1.18277216182030     -1.00835896320234
  N   -1.11153287682391      2.17579305597655     -1.47821145509285
  H   0.14134299231399      0.91112046718743      1.50902203201697
