15
Coordinates from ORCA-job run
  C   -0.07326815044950      0.03751965183715     -0.42552330544316
  C   -0.03272297561190     -0.00068161669662      1.08010923013439
  F   1.23702117813039     -0.11005445970932     -0.93575498414501
  H   -2.29902383086078     -0.76187377443907      1.60815893127694
  H   -1.23174377127840     -0.15468999153808      1.40541682145982
  H   -0.44579060725816      0.99555393821841     -0.78158103376646
  N   -0.85825214485107     -1.03180352446492     -0.99475940971948
  H   -1.77630243080884     -0.96086819847830     -0.55100500735691
  H   -0.47632160080930     -1.89789752529679     -0.62418538567745
  N   0.44647464723483      1.25617975698724      1.65415057482421
  O   1.04663905724355      1.25785972573947      2.73383649711286
  O   0.12127818421824      2.30408565817024      1.06322596570953
  N   0.57906084317690     -1.14704369129196      1.64929598236440
  H   -0.14730452088586     -1.80235925610662      1.92690027622941
  H   1.25973612280990     -1.57736669293083      1.03967484699690
