14
Coordinates from ORCA-job run
  C   -0.05554903120977      0.00048886636810     -0.36635093501182
  C   -0.01389329622474      0.15903043735142      1.07696433192565
  F   1.21518612717164     -0.39223737949547     -1.01306529979103
  H   -2.29011901207200     -0.38211917920321      1.80060864992059
  H   -1.44402921250316      0.02776641022927      1.45007815526272
  H   -0.73236868587190     -0.81740211410034     -0.65052751968354
  H   -0.33806636467888      0.92326963985352     -0.88696506630388
  N   0.40596137196457     -1.03124724579039      1.80518375749143
  H   0.98590696698365     -1.61905126646505      1.21627043185213
  H   -0.44054033995082     -1.56201894866878      2.04101098878394
  C   0.64135933401996      1.40846239024866      1.61249954323849
  H   0.36790162229892      1.54504053788647      2.66690945034609
  H   1.74479656486506      1.38650548634780      1.57097499431868
  H   0.30764395520746      2.30011236543800      1.06337851765054
