15
Coordinates from ORCA-job run
  C   -0.49872597769832     -0.27686925769742     -0.41853732318757
  C   -0.01320182011860     -0.34419963517754      0.91398968206472
  Br  1.45311403445693      2.92911386754945      0.64064821449138
  H   -1.81272318801278      1.05280312142717      1.07241435051298
  H   -1.12180942884185      0.27436152306826      1.36511560474507
  H   0.62900814978914      0.51060742135238      1.15784045897207
  C   -1.14694375288071     -1.44222653156007     -0.97217295954355
  N   -1.65169204101428     -2.41400249644942     -1.40703115781318
  N   -0.90010870729065      0.92498164831075     -0.89575892312465
  H   -0.20925470455226      1.62834416179815     -0.57277056650207
  H   -1.71095075490589      1.19968700970910      0.02656591865542
  C   0.31864051771443     -1.64699835835973      1.59913754343758
  H   -0.36436734381499     -2.44926045414336      1.30981360862945
  H   1.33724421101883     -1.95761708333321      1.35014169385763
  H   0.27007080615101     -1.52546493649453      2.68394385480471
