19
Coordinates from ORCA-job run
  C   -0.05794541482328     -0.07640164554754     -0.32629011471822
  C   -0.11128484279791      0.02427916138885      1.13483194599323
  F   1.23292464655717     -0.25996705922133     -0.88666604021855
  H   -2.39187607872395     -0.75962395144700      1.65333344501230
  H   -1.48352198770716     -0.27989930352056      1.43689353683841
  N   -0.87932088676970     -1.09075998201283     -0.92597765591611
  H   -1.66884144096248     -1.24717903513566     -0.29809788817241
  H   -0.32947453628037     -1.93777485445465     -0.97322207454970
  N   -0.51747629807036      1.26705298912600     -0.92205311633682
  O   0.33095355120020      2.06055924857076     -1.32222753153462
  O   -1.72557263624808      1.47560082436630     -0.90392274988166
  C   0.39056913275678      1.31245977766079      1.74457580705216
  H   -0.12619069990116      2.19052611082388      1.34313156548347
  H   0.18749763861857      1.29773891054056      2.82342303762407
  H   1.47363979573093      1.48226196032677      1.61757973323581
  C   0.47932103729491     -1.20148182284925      1.79351089807561
  H   1.56496514544712     -1.31291179789789      1.64921875217283
  H   -0.01281659662534     -2.11370497437696      1.43616280913022
  H   0.28105047130410     -1.15777455634025      2.87240564070996
