14
Coordinates from ORCA-job run
  C   0.05588210425749     -0.01010561005472     -0.51540479766441
  C   -0.05231725910601      0.05515302770739      0.94360524901746
  F   1.39935905711386      0.16533952001913     -1.11951096707658
  H   -3.28695384015548      0.41361605242884      2.37931593712618
  H   -2.61435375536461      0.30087226415203      2.07531254019329
  H   -0.48360807553059      0.84920837991398     -0.93072348969170
  H   0.51699634253493      0.90682595148925      1.33319771831541
  C   -0.44128677454724     -1.30438107203914     -1.13740445475247
  H   0.17444636503625     -2.13469000330909     -0.78412596648775
  H   -1.47931129268429     -1.49049114556103     -0.85686466583252
  H   -0.35475232967244     -1.26144929784813     -2.22659355357238
  N   0.57053141071676     -1.14481767608497      1.56815043618703
  O   -0.11688035176610     -1.84250236561359      2.33044400686160
  O   1.75206839916742     -1.44875802519995      1.32349200737687
