18
Coordinates from ORCA-job run
  C   0.65641894698506     -0.18483728568818      0.20513296388260
  H   1.78007899975777      1.56280509930794      0.55400213777611
  Cl  -2.61310286432050      0.14642027860958     -2.17391792137289
  H   2.88428250474030      0.07137127846348     -0.65909426167651
  C   0.77520568639834      1.31623912973186      0.21993862379406
  N   -0.28580442232032     -0.74447790465039     -0.49366182147687
  H   -1.01042581429372     -0.26753438567398     -1.09156486378459
  H   -0.37776400267822     -1.74996673978760     -0.47793631126447
  N   1.34486089059996     -0.86377223582842      1.17075577739110
  H   2.32317983296357     -0.59791748743041      1.02539571460525
  H   1.24173353354372     -1.86838819723397      1.10700163861677
  N   -0.15723631919043      1.85543539810457      1.28920941775917
  O   -1.03334478031312      1.13030633106523      1.75375946412375
  O   0.05439684217529      3.01784765070210      1.63086792816695
  C   0.47345354438823      1.99820115575029     -1.09852212800277
  H   1.20078279913269      1.62085900901819     -1.81760206366635
  H   -0.53888363215609      1.78972133162663     -1.44839913241805
  H   0.60169825458747      3.07471757391306     -0.97799516245323
