13
Coordinates from ORCA-job run
  C   -0.25551383460575      0.13320417475799     -0.31913226375531
  C   0.09474240367388      0.13265507608568      1.14259813469308
  Cl  0.58825047364786      1.48128712232814     -1.14534774304276
  H   -1.81711751484083      1.20950245467980      0.80028186567471
  H   -0.98072372361938      0.99730327103788      1.39961294922015
  C   0.01781057657328     -1.10756637744746     -1.01533022115670
  N   0.21663443693710     -2.11092159975750     -1.59633428435838
  C   -1.83422684005178      0.48476296232067     -0.44744579680610
  N   -2.72354806824370      0.25956911064185     -1.21045101445474
  C   -0.25225802547913     -1.08794664193897      1.81629763361913
  N   -0.58359288825221     -2.06335069348689      2.38919859599568
  C   1.31707099847554      0.72560579613053      1.58967687253109
  N   2.30211200578510      1.22502534464830      2.00298527184016
