15
Coordinates from ORCA-job run
  C   -0.16921085044537      0.00858893460987     -0.35827769164559
  C   -0.10706131967236      0.01811853938728      1.17706635533887
  Br  1.77309337790525     -0.01957569589480     -1.01029992360218
  H   -3.01037752430403     -0.58043680782521      0.57079277046680
  H   -1.18380552157564     -0.00658251851887      1.44870287373896
  N   -0.85536834875325     -1.11475091116780     -0.88779374696123
  H   -1.82898178248746     -1.01546171671021     -0.45612700351988
  H   -0.45793509146776     -1.96719316884299     -0.49850832834498
  C   -0.83201520306395      1.30298036950939     -0.84795397029663
  H   -1.71059014233576      1.02934844573073     -1.43074152101376
  H   -1.17342724407070      1.90552586430620     -0.00335992878893
  H   -0.16028197791012      1.89969345781379     -1.46367652651844
  C   0.53990514208350     -1.15571170501980      1.74711700782144
  N   1.03879185236031     -2.10950023122709      2.21746289267225
  H   0.37250463373733      0.92256714384952      1.56292674065329
