15
Coordinates from ORCA-job run
  C   0.31498490715961     -0.00672030026612      0.11920190828997
  H   1.69835709622471      1.64182522445192      0.21467895741010
  F   -1.35566467561799      0.21497244078424      0.54054391160582
  H   2.00346120762097     -0.44597526802327     -0.69584396275758
  C   0.63918785294060      1.46867420026609      0.02898968629502
  H   0.02409944580236     -0.53975846742151     -0.76440790753442
  H   0.05674398290469      1.96616797677966      0.81346840154880
  C   0.73281785054495     -0.76438329549696      1.36002455072963
  H   1.72181624527523     -0.46152454062151      1.70150982002337
  H   -0.00617856626662     -0.57650097663673      2.14558786161012
  H   0.77177524881761     -1.83560349647851      1.15458844872466
  C   0.24296670662469      2.02795325053498     -1.32775270324518
  H   0.82871696391913      1.52541699816943     -2.10293228846707
  H   -0.81895222216972      1.83555474036307     -1.49468096057075
  H   0.41876795621976      3.10790151359522     -1.39874572366248
