11
Coordinates from ORCA-job run
  C   -0.43577646170213     -0.05815599300550     -0.21161603084942
  C   -0.01913466136235     -0.24599675496889      1.23301438580291
  Br  0.87569311464608      0.92863619887814     -1.27257127577968
  Br  -3.29673671636382      1.38062074577964      1.09951591678101
  H   -0.80734882727431      0.19729553836436      1.84399062246676
  H   -1.38293971234476      0.48380179220403     -0.29278509364348
  H   0.93210429520698      0.23881310147830      1.44770012364274
  H   0.07873954735270     -1.30614039865695      1.46107007147160
  N   -0.63562511762988     -1.36368330564212     -0.95373342956106
  O   -1.35033450929054     -1.31202243121324     -1.94922482428190
  O   -0.06965095123796     -2.37544849321780     -0.54420046604948
