18
Coordinates from ORCA-job run
  C   -0.14661397394708      0.02247413084260     -0.34077231159074
  C   -0.12934221717592     -0.01556047387375      1.10888530669082
  Cl  1.66293254939645     -0.00391745253780     -1.18127106478436
  H   -2.55044552434884      0.16819489772328      1.78091149900079
  H   -1.37748521271121      0.01351282015844      1.39768292285395
  C   -0.85195451711197      1.20596753639564     -0.95191988842291
  H   -0.96348444790078      1.09174176654872     -2.03249551489334
  H   -1.84160140732850      1.26595836093299     -0.47664719395943
  H   -0.31283241627206      2.13481261059220     -0.76103492291695
  C   0.39176841647091      1.22355115496169      1.80291069328568
  H   -0.19592552912664      2.10717351045393      1.53570775689147
  H   0.28931885528451      1.10091357116254      2.88711789652621
  H   1.44809525661952      1.41867807658111      1.57312108936226
  C   0.41884649558903     -1.29378141971893      1.70117041285695
  H   1.51632475770097     -1.33585783714255      1.66530479665046
  H   0.10249887526970     -1.38408565748182      2.74803225730558
  H   0.03371166226819     -2.16975176471640      1.16646580543193
  H   -0.52499162267627     -0.91747383088189     -0.75076954028838
