13
Coordinates from ORCA-job run
  C   -0.33967460215796      0.03109311184996     -0.15272995871761
  C   -0.13742290588104     -0.03977505935264      1.26267797407294
  Cl  1.46838515764857      0.25453791840985     -1.18525282220108
  F   -2.67927166530137     -0.35820978485704      1.48862431740218
  H   -1.57079470636643     -0.17655909720141      1.50829342553864
  H   -0.77490651675317      0.97480849772456     -0.48311260975854
  H   0.30167106389649     -0.99319688154922      1.57952186720778
  N   0.48819567381374      1.09672756850238      1.92368165293249
  H   -0.16165770878785      1.87447885042845      1.92264260222663
  H   1.29408138037605      1.38610971313570      1.37176764434599
  N   -0.97056012269439     -1.07980797910495     -0.81252715128533
  H   -1.89257929481613     -1.11880125414199     -0.37858417129697
  H   -0.47794575297651     -1.91807560384365     -0.51967277046712
