16
Coordinates from ORCA-job run
  C   -0.34639765015044     -0.08561239844314     -0.36642214516523
  C   -0.09569640799208     -0.12664093297330      1.00301775014499
  F   1.43376035349828      2.83092438912538     -0.55338254579431
  F   -2.42531726220872      0.11866890400278      2.45492537645429
  H   -1.70200626542982      0.07515973354913      1.82994934761825
  H   0.38374954437504      0.79848924769517      1.32253654389285
  N   -0.93821032951937     -1.34766506482567     -0.98959384560765
  O   -1.58341073295045     -2.12564222615312     -0.28619275811107
  O   -0.75503577017546     -1.51814571343999     -2.19965893523503
  N   -0.18978396594563      0.91698175100867     -1.19803951675252
  H   0.81488055357899      2.13765840748609     -0.81833500139471
  H   -0.55202975876942      0.69495544124337     -2.11761675690652
  C   0.25196091935719     -1.35597532175326      1.81560290318699
  H   1.17582402608207     -1.85374568616036      1.48549645941936
  H   0.40403319534737     -1.05711859406540      2.85665795318440
  H   -0.54575044909756     -2.09737193629631      1.81046517106590
