18
Coordinates from ORCA-job run
  C   0.60077931990644     -0.04323354841173     -0.05827709129644
  H   1.58305131091395      1.66008361709501     -0.69326616049797
  Br  -1.97369990333505     -0.56206748186461     -0.45410433397680
  Cl  2.90683602202429     -0.06118290612128      0.68071867008405
  C   0.62998212850062      1.48078086097679     -0.17586157219378
  C   0.93491522381829     -0.85969265798606     -1.29002352931621
  H   0.19004365644197     -0.69411505524979     -2.06506319486115
  H   1.92015493642464     -0.57312239879926     -1.65569555134060
  H   0.94522764737583     -1.91998534515178     -1.04128029438826
  C   0.29534048248633     -0.66647782805146      1.20230179515313
  N   0.12130065578915     -1.18055565620909      2.24981951686499
  N   0.60021886244565      2.07353587778108      1.15334647420911
  H   0.64371822486086      3.08175483985839      1.05560104520562
  H   1.43425281749605      1.77132067600721      1.64712408522857
  C   -0.44873223742709      2.13309282223557     -1.03320631309108
  H   -0.56487438177946      1.63350083785515     -1.99460733164073
  H   -1.40507039949795      2.11449611556916     -0.51713058122285
  H   -0.14473436644451      3.17230723046672     -1.21538563291956
