11
Coordinates from ORCA-job run
  C   -0.22406436450182     -0.04298544472694     -0.23706853456111
  C   -0.09817570129322     -0.14948333127578      1.19310187146153
  Br  1.59764177937089      0.46157626446602     -1.31580148957837
  F   -2.53903511185071      0.31125396774709      1.58274694543029
  H   -1.39078572274681     -0.16294936607932      1.42750149854158
  H   -0.48834534265373     -0.96800967850323     -0.74725760244677
  H   -0.84085250140532      0.79396449093579     -0.55394786519851
  H   0.45886845943981     -1.03082024929265      1.52322822426768
  N   0.28377135918419      1.05503294748988      1.92149658924364
  H   -0.55952480477607      1.61256909210461      2.00261448759539
  H   0.96520195123279      1.57964130713452      1.37967587524466
