16
Coordinates from ORCA-job run
  C   -0.34106183091342     -0.04835342272414     -0.19628147274360
  C   -0.35235817710508     -0.20884037324216      1.33082056421299
  Br  1.45377667558948      0.46382290808870     -0.83890055056352
  F   -2.09231917756110      1.86685543057455      0.69200357679077
  H   -1.36908608551390     -0.53609049053361      1.55516531370502
  H   -0.96567045866148      0.85722485030822     -0.28708120142673
  C   -0.89588266491103     -1.23940462221131     -0.98022560817623
  H   -0.19094208632844     -1.61202509454066     -1.72386501603099
  H   -1.13708903487045     -2.06888720805940     -0.31343957280783
  H   -1.80877343101746     -0.93221339446604     -1.49631129078359
  N   -0.08289305013871      0.96657456254851      2.09091467846908
  H   -0.86313400125379      1.57833983637977      1.74170863177211
  H   0.79600341770511      1.35984702692906      1.77007547130018
  N   0.53890106302530     -1.34426012014582      1.75961776778958
  O   0.07066574447618     -2.48796973291905      1.71673963199422
  O   1.69060309747879     -1.08077015598664      2.09430907649854
