12
Coordinates from ORCA-job run
  C   -0.11682307966183     -0.08593395656839     -0.40204464464750
  C   -0.34538269757969      0.03130099468588      1.03967830749362
  Cl  1.72642254301966     -0.10384804681818     -0.95845040724019
  H   -2.54540267125960      0.61896677114748      1.94392289746956
  H   -1.57634055011109      0.12860905591631      1.30640943850233
  H   -0.48500309880044      0.79935972684568     -0.92086548331327
  H   0.00315285046104     -0.85627649554885      1.58381455286473
  C   -0.68268381835213     -1.30085698775470     -0.97614672430360
  N   -1.15504134630227     -2.27823660754427     -1.42676436844155
  N   0.08614095455986      1.31530939783564      1.55268031941964
  H   0.92386523987171      1.22685217403903      2.11216483013115
  H   -0.68290432584523      1.63210397376436      2.15332128206507
