16
Coordinates from ORCA-job run
  C   -0.02219197685379     -0.01989138074903     -0.54905911196054
  C   -0.44485547873986     -0.04373857782135      0.93862046207757
  Br  1.94204523639932     -0.24290425925361     -0.72850565989514
  F   -1.67192414443632     -0.43854946189487      3.30763406364000
  H   -1.53580348957709      0.05590010564001      0.92405580688307
  C   -0.35757135547106      1.24633755162521     -1.20057491730390
  N   -0.65082859648086      2.28367940194794     -1.67033432670773
  C   0.12706621900852      1.15620855122337      1.71712664199608
  H   -0.68920858232139      1.78399332536838      2.07034849718641
  H   0.61879786108052      0.77605469817171      2.61078615316983
  H   0.83415462928248      1.76028976331274      1.13803767003711
  N   -0.19676371033230     -1.36016034048297      1.47672951826426
  H   -0.79379814811113     -1.26296335096027      2.36150659533129
  H   0.77723446298800     -1.39925142172563      1.76673609165299
  C   -0.63505365142814     -1.12482187000306     -1.28564523937828
  N   -1.14244927500692     -1.95702273439853     -1.94240224499301
