14
Coordinates from ORCA-job run
  C   0.57427543594989     -0.06408574121082      0.02451274403041
  H   1.30850815048262      1.83954757872478     -0.68858991893863
  Br  -1.92012229812665     -0.33334393257927     -0.44263372126941
  Br  3.13729097880088      0.03922851359878      0.22585663794337
  C   0.52746936846706      1.46982439775575     -0.02461838060609
  H   -0.44072415195639      1.80094223735357     -0.40131060159587
  C   0.80724260433993     -0.74324656733885     -1.21961869430075
  N   0.98070021731854     -1.29287438523995     -2.24908403345525
  C   0.41257593057585     -0.82420643630272      1.33273537546334
  H   1.29949804536831     -0.72134285083668      1.95268806643135
  H   -0.45049036818924     -0.43844113073136      1.87205959866235
  H   0.23605620812774     -1.87731019673381      1.11586452497259
  C   0.72569415721111      2.05793362358891      1.29727338618611
  N   0.82638572163030      2.56537488995168      2.35110501647649
