15
Coordinates from ORCA-job run
  C   0.62360512684500     -0.20819046403976     -0.33406068240703
  H   1.81888294397680      1.45852479469852     -0.77023537931139
  F   -1.65151543293093      0.31059437026042      0.19654277189593
  Cl  3.32362164447392      0.09001743121219      2.60258420472757
  C   0.81951849682754      1.28071627399986     -0.35342271921559
  H   0.83746951342700      1.59425327659869      0.69574357124298
  N   0.02604803116285     -0.80614450493139     -1.38775358690020
  H   -0.75779526717160     -0.21670709401629     -1.64811212134965
  H   -0.30568536986093     -1.73415234446014     -1.16392898369337
  N   1.25965778766102     -0.89106944144101      0.57713492419344
  H   1.88902112882520     -0.45496238884013      1.28685096515236
  H   1.19483592125275     -1.89607029934311      0.59859213586851
  N   -0.20318694483452      1.91422528532164     -1.17032876116265
  H   -0.05847817766083      2.91563764291375     -1.15795145665502
  H   -1.06809940199326      1.65664746206676     -0.66563488238588
