18
Coordinates from ORCA-job run
  C   -0.34910516648208      0.12477756145527     -0.24065863041998
  C   0.10745323208592      0.18101187481881      1.05311922392625
  F   1.55350845715639     -0.78343328895196     -0.99432017819848
  Cl  -2.71936888511862     -0.43742630963920      2.33985059359568
  H   -1.60557336072724     -0.03537914777373      1.67831223671198
  C   -0.95098140342961     -1.12038984730108     -0.80920635865575
  H   -0.66733798314807     -2.00201377225700     -0.24084290653739
  H   -2.04731115385659     -1.02552754706804     -0.80576840493246
  H   -0.59175075437262     -1.24960420094540     -1.82720865309019
  C   -0.49775230524648      1.34542844204957     -1.08776640206441
  H   0.28814715402365      1.23605008008162     -1.84131567039636
  H   -1.46963081695891      1.38317164939579     -1.59048533257599
  H   -0.33222735913768      2.27154612832037     -0.53539296869248
  N   0.76699290516103     -0.96176960264154      1.61943705017997
  H   1.27424225969342     -1.30283735745673      0.78571759980225
  H   0.10771401764903     -1.65660397879928      1.94998365486711
  C   0.48817928477421      1.44469824804729      1.62114413484444
  N   0.75463187793420      2.47905106866523      2.11868101163582
