19
Coordinates from ORCA-job run
  C   -0.13147970193996     -0.03081807850016     -0.36675557508525
  C   -0.11685241792530      0.05016593922196      1.09715874718096
  F   1.13242735165011     -0.20883628237426     -0.98598679890140
  H   -2.38794714228743     -0.71402910440497      1.67838894262042
  H   -1.47872437290802     -0.23547877308584      1.44602937186970
  N   -0.98206905829889     -1.03460800077488     -0.94287494044407
  H   -1.75626349796540     -1.17659006693318     -0.29179155339137
  H   -0.44506116286391     -1.89010757736562     -0.99232424765103
  C   0.43862284912029      1.32295372963368      1.69384783164692
  H   -0.09574948246841      2.21206670285847      1.34246478659045
  H   0.30954362448455      1.29193469809910      2.78339320347141
  H   1.51167189814372      1.48640288788787      1.49530569434276
  C   0.47871401438428     -1.19737111217622      1.70975784781050
  H   1.53944334633146     -1.36140175412346      1.46561436497764
  H   0.38681738682575     -1.13832669447948      2.80167129656301
  H   -0.08919626872783     -2.08681741446624      1.41013328967994
  N   -0.61413178400999      1.32110334429086     -0.92255906089961
  O   0.21881764677920      2.12201831282121     -1.34014995674861
  O   -1.82101322832422      1.52769924387115     -0.85763324363239
