14
Coordinates from ORCA-job run
  C   -0.47446355818140     -0.12489755301913     -0.27810900079348
  C   -0.32716866100348     -0.01739840972327      1.13771873562613
  Br  2.45090732193193      0.19537612079292     -0.88527742145715
  H   -2.41931722779277      0.99015527181140      1.00246591089432
  H   -1.56665887808042      0.25551409268232      1.34239657151393
  H   -0.00423538644499     -0.93116518718106      1.63119563291617
  C   -0.54903380054789     -1.41564240533336     -0.90582401814316
  N   -0.68717505234391     -2.46935479938514     -1.41579298517786
  N   0.29243020178304      1.16823135826709      1.68891862360281
  H   1.17867294244640      1.25273739826005      1.18427791609042
  H   -0.26716737358835      1.97485236328965      1.43365684955652
  N   -1.07738583650315      0.93741744372681     -0.84218488791381
  H   -1.41910769408175      0.77150227380318     -1.78268033878497
  H   -1.88152699759325      1.24808203200849     -0.10293158792989
