12
Coordinates from ORCA-job run
  C   -0.08342671219360      0.02120855775883     -0.31282055276962
  C   0.00325269071141     -0.00795046216863      1.14146990595861
  F   1.13144631597335     -0.08022451434419     -1.04731020006069
  F   -2.49842307853061     -0.18403415732318      1.18419897078096
  H   -1.32411364407342     -0.08432022907554      1.37044930219527
  H   0.54627054480183     -0.89433464736444      1.47079067549565
  N   -0.83963077671258     -1.20333139904125     -0.85262209393348
  O   -1.55648387319053     -1.04250902177693     -1.83506515061015
  O   -0.58570466543060     -2.27586091564057     -0.32234569700755
  C   -0.75043397266914      1.23161145394181     -0.81894434050717
  N   -1.17695906000727      2.25138161187475     -1.21411197212992
  H   0.45892623132115      0.91448372315933      1.50801115258809
