11
Coordinates from ORCA-job run
  C   0.47155548691068     -0.03644602127472     -0.00056151647163
  H   1.74429304299107      1.74195493119013      0.00693497726542
  F   -1.14622963256529      0.02393186931397      0.00723649414046
  H   2.30700210267899     -0.38691095488715     -0.00227444783316
  C   0.69400701329628      1.47303137926986      0.00089844506577
  H   0.18871790508629      1.87456926425812      0.88120911077620
  H   0.19935410880879      1.87544218593238     -0.88510082254517
  C   0.73201337807766     -0.75744860407014     -1.22690702057388
  N   0.70639705279923     -1.28956840939975     -2.28164584154120
  C   0.74319688784136     -0.76016958860806      1.22179309731587
  N   0.72449265407492     -1.29117605172464      2.27735752440133
