13
Coordinates from ORCA-job run
  C   0.50728470953155     -0.07052231168436      0.00856148627759
  H   1.71479347852421      1.74189191451463      0.02719238001729
  F   -1.13117489457243     -0.01649083018728      0.04673062764005
  H   2.34918070289312     -0.26925453212865      0.11101980288748
  C   0.66857128132803      1.45152889229696      0.03725704260416
  H   0.18907130515919      1.79764172398985     -0.88114577815557
  N   0.57020367094445     -0.71270479182249     -1.28901752081122
  H   -0.23295945782328     -1.33004247815636     -1.33846111733918
  H   1.43460650743225     -1.22877707168507     -1.33783047323583
  C   0.73957045072291     -0.82409683965697      1.21914796374281
  N   0.72030065629917     -1.47032895761100      2.20866188657616
  C   0.00170799020985      2.07782588111070      1.18009280684543
  N   -0.47310640064904      2.64289940102006      2.09303089295084
