18
Coordinates from ORCA-job run
  C   -0.65393760554361     -0.06536390756594     -0.28403300835517
  C   -0.17884530384781     -0.06027650600906      1.05856797298705
  Br  3.22812413227081      0.22394488731191     -0.43306968497869
  H   -2.32231436453195      0.78895910659223      1.19344527090613
  H   -1.46295252634081      0.15617134532050      1.44366095889317
  N   -1.34528012782189      0.99329918668968     -0.77493370899359
  H   -0.84867653131968      1.84253227511153     -0.50711455899344
  H   -2.21726127004795      1.03807703933296      0.16904016667116
  C   0.44071385044493      1.20673553927173      1.61445080611846
  H   -0.10506064397889      2.10937736926091      1.33132489208668
  H   0.45821820782104      1.15941296335803      2.70687082549631
  H   1.46655410302245      1.25458662064107      1.23203764384241
  C   0.44580799986939     -1.31113098829990      1.62577527516162
  H   1.50599437752967     -1.29563437656842      1.35183180867941
  H   0.36067379653465     -1.31498942419328      2.71643269372601
  H   -0.01131889102274     -2.22168068206164      1.23470949008415
  C   -1.04388203388424     -1.33359298359312     -0.84997851731969
  N   -1.38504716915337     -2.36539746459922     -1.30337832601203
