13
Coordinates from ORCA-job run
  C   -0.05157873594104      0.03258416024247     -0.41856542665931
  C   -0.22850395007516      0.14509091114988      1.00571486485259
  Cl  1.82230604102870     -0.13643507248264     -1.04637673085564
  H   -2.39477574400997     -0.15681024054415      2.01067997172489
  H   -1.48367503070873      0.04417872778556      1.27379451179239
  H   -0.36292720523107      0.92892880521796     -0.94712297450997
  N   0.09042054646996      1.44839379109769      1.54897415257343
  H   1.01187814601620      1.38363196179090      1.97251483140795
  H   -0.56863393282599      1.59635525714967      2.31430498878330
  N   0.30824072844284     -0.95257516196502      1.80104800849809
  H   0.62446617903741     -1.70297595479385      1.19713897916689
  H   -0.48068923674158     -1.30190484440493      2.35593804153895
  H   -0.47046780546158     -0.88042234024354     -0.84207321831357
