14
Coordinates from ORCA-job run
  C   -0.70341906085252     -0.59232019178875     -0.37341537562989
  C   0.06729709027630     -0.27547351867791      0.71377169868331
  Cl  1.96719782375366      3.31980304877245      2.01878699539657
  F   -2.52023971989208      0.42904468922806      2.05404247756851
  H   -2.00022017267118      0.81215962417699      1.39719231650246
  H   -1.24924158648911     -1.52376023606714     -0.37836054475418
  C   -0.76506328916370      0.26686019921139     -1.49276460474095
  N   -0.82410808576331      0.98366018972021     -2.42792210779883
  N   0.84924961396810      0.77234460104890      0.93471099849803
  H   0.88548317083406      1.55800422818665      0.29905377378863
  H   1.21501579359907      1.02144071731033      1.84981112819102
  N   0.06576136649813     -1.26023966382927      1.83569012894433
  O   0.59674624206881     -0.90297824147529      2.88390857242091
  O   -0.45362918616627     -2.35519544581663      1.63865454293007
