15
Coordinates from ORCA-job run
  C   0.55568705061063     -0.04570171617620     -0.07458249982045
  H   1.61562858076729      1.67797466714399     -0.35451779348812
  Br  -1.73656996542914     -0.42440240882657      0.18405679231820
  F   2.59476588520512      0.10045821625119      0.27523482403002
  C   0.56621517779668      1.47022581590051     -0.13269622905907
  H   0.73926145642575     -0.51377271147021      0.87107461516228
  C   0.79395546063791     -0.79216923392950     -1.35490992056277
  H   0.11216375576901     -0.46061101382474     -2.13641342665540
  H   1.82888514786117     -0.59563442378732     -1.62887472054915
  H   0.66010374389725     -1.86183641685514     -1.18985737859108
  C   0.29188345799464      2.05406449533044      1.19493969045108
  N   0.06957260890115      2.61572952238808      2.20303716999551
  N   -0.27441953445584      2.02236014550570     -1.19077977544377
  H   -0.14572677254601      3.02706770658529     -1.21344564966761
  H   -1.24405605343559      1.82533735576448     -0.96712569811967
