13
Coordinates from ORCA-job run
  C   -0.54707804899141      0.09595009073607     -0.13719850745622
  C   -0.33253069493262     -0.05202481262656      1.21478903467404
  Br  2.12579633658162      0.35449433175937     -1.39696290764708
  Cl  -2.96491810772263     -0.03999697697450      2.51694989026933
  H   -1.62308928487272     -0.08623855749803      1.74001622421318
  H   0.04552903996369      0.82446104051130      1.73179634031146
  H   0.06411775957481     -1.00811150694311      1.52693037802400
  N   -0.83786683904832     -1.13764574572395     -0.92518214363810
  O   -1.28658328441461     -0.97926926904845     -2.05883236526556
  O   -0.63891811548735     -2.21829933510447     -0.38151624088868
  N   -0.90989466377374      1.21400476691363     -0.78187306247301
  H   -0.86051539669717      1.11597705502329     -1.78688637188431
  H   -0.43031870017955      2.03503891897540     -0.44394026823905
