17
Coordinates from ORCA-job run
  C   -0.43310804681980      0.02601371497013     -0.18368263115329
  C   -0.09430298061644      0.04241338305423      1.14749143781402
  Cl  1.71180686644241     -0.53877913440173     -1.50379545746324
  Cl  -2.84631484274591     -0.07860692165553      2.20685546120611
  H   -1.48280608263451      0.02307789625964      1.42854527609183
  H   -0.74084940289119     -0.93427133158616     -0.58290804407326
  C   -0.81119374389542      1.24340895459160     -0.96052165798602
  H   -0.89870855281538      0.99830822915135     -2.01739209891602
  H   -1.77208835017991      1.63500241332835     -0.59989226985911
  H   -0.05248252839892      2.01927369619380     -0.85835416951688
  C   0.36358105472243      1.29980686192097      1.83690854572628
  H   -0.19002419331419      2.18117239300609      1.50680457043009
  H   0.22771245712268      1.18951425405467      2.91491578119789
  H   1.42978816158374      1.44214265624042      1.63391348088039
  N   0.41351338555432     -1.16320750315652      1.74233536851915
  H   0.77642183966360     -1.75917827885336      1.00670497244988
  H   -0.30553504077751     -1.64847128311796      2.26700143465215
