13
Coordinates from ORCA-job run
  C   0.12595076367897      0.57835790441277     -0.24256814506444
  C   0.94413217214461      0.25512468252649      0.96658528872843
  Cl  0.78182224944710      2.13301970744434     -1.03543565292080
  H   -1.38315519790518      1.31243928600313      0.85326376489140
  H   -3.77476784238994     -1.44190804445216      0.87136859939108
  H   0.23308291881790     -0.14365003350313     -1.05947882216305
  N   -1.26179304682971      0.68574572048360      0.06734056553622
  H   -1.81044856307595      0.99933167508314     -0.72584826242890
  H   -3.14383076616082     -1.08890362775681      0.71166808766373
  C   2.01276150584251      1.03510943887677      1.42895453439435
  N   2.91338062261460      1.67844187076057      1.85167283854783
  C   0.67886930201777     -0.97888981442140      1.58335004462337
  N   0.44377588179814     -2.02576876545736      2.08665715880080
