15
Coordinates from ORCA-job run
  C   -0.69818487485432      0.08434568189164      0.04866128195071
  C   -0.22809724253890      0.12214894183071      1.35111700695077
  Br  1.35686952569642     -0.59139008047511     -2.11718345797920
  Cl  -2.69048262192465     -0.60882379572861      2.78493213291669
  H   -1.48359523467797     -0.21429084162070      1.83347814180353
  H   -0.90969275000995     -0.87983958856041     -0.39466459316322
  N   0.02546520756847      1.35742731564279      2.03063728355518
  H   -0.71692090677820      2.03035090121639      1.89486197367597
  H   0.92620632806001      1.73880683600680      1.76465808499673
  N   0.61959761608627     -0.93676067297941      1.78278249038038
  H   0.91136229563663     -1.51419390030769      1.00507067067978
  H   0.19421350891457     -1.48453620893179      2.52030446424150
  N   -1.13674313878176      1.16365331057749     -0.64339272994009
  H   -1.15102384228747      0.98318357523680     -1.63716065981167
  H   -0.63215387010917      2.01103852620111     -0.42039209025704
