17
Coordinates from ORCA-job run
  C   0.64496180957010     -0.09118323490970      0.00052371294164
  H   1.55350976854349      1.84288005266782      0.02203265821229
  Br  -2.01630022955559     -0.10895227033014     -0.03367357824132
  Br  3.22644875994774      0.03621531290220      0.03311367950999
  C   0.52873797159594      1.45179971291195      0.00210173036606
  C   0.72493215739169     -0.81409185311121     -1.33103325647351
  H   -0.26636339446578     -1.03163493646691     -1.71962680372092
  H   1.26475763410207     -0.20929986232618     -2.05919008435728
  H   1.27924609177828     -1.74199691827043     -1.19484444482695
  C   0.69094567012323     -0.81468458626602      1.33315729470471
  H   1.23288450378750     -1.75141734930643      1.20716630694678
  H   1.22921730970152     -0.21770736439702      2.06886198513165
  H   -0.30931384780068     -1.01598864698393      1.70716435698187
  C   -0.11694858898424      1.98652089942968      1.20355921102916
  N   -0.49106039323991      2.48200725747694      2.20088798126377
  C   -0.07467892983254      1.99255466218716     -1.21827239545330
  N   -0.41977629266284      2.49474912479228     -2.22263835401455
