16
Coordinates from ORCA-job run
  C   -0.22908895738500      0.05168249665020     -0.29214386578040
  C   -0.28109864536817     -0.11647258149970      1.14091537558481
  Cl  1.65935909171978      0.18770264375159     -0.99183909257603
  H   -2.54211853105004      0.36038454225597      1.94746496832936
  H   -1.52933050602211     -0.00210352587894      1.42686056342623
  C   -0.91447146697521      1.28607642009408     -0.81294898228298
  H   -0.93562404034211      1.30839059528287     -1.90426769401436
  H   -1.93842993140874      1.28534190897921     -0.41318781418772
  H   -0.41917779811209      2.19096859706114     -0.45854133906383
  N   0.24561244930278      0.97443264782360      1.93992791933464
  H   -0.54365723137484      1.54302590990292      2.25064905223693
  H   0.88614820552841      1.54787339210580      1.40240085799078
  N   0.12061089045585     -1.44041919894410      1.57762119697045
  H   -0.35429299709779     -1.59887282050378      2.46336053467251
  H   1.11419668119142     -1.40824062911486      1.79548618308207
  H   -0.52959721306213     -0.86244039796602     -0.80162786372245
