16
Coordinates from ORCA-job run
  C   0.41922175305277     -0.06829700480705      0.05160011256485
  H   1.52991041468535      1.69795059758319      0.40309954536965
  Cl  -1.70707807067381     -0.16250625963600      0.57243099386009
  H   2.40427032828021     -0.05012497951831     -0.57305515561848
  C   0.53613082387323      1.45115989190923      0.03957533228985
  H   -0.18787956912701      1.85862366477601      0.75158278543485
  N   0.20487489246360     -0.80132074268791     -1.18606806662387
  H   -0.45646106850829     -1.54898407821346     -1.01493504949336
  H   1.11001423771756     -1.15602987672438     -1.45110305607413
  N   0.86374432832752     -0.69895456762495      1.28031100615996
  H   1.82476754915030     -0.95374624488880      1.10411266836746
  H   0.30319507044367     -1.52838689258298      1.43684396952559
  C   0.31584724341004      2.04753035934065     -1.33742940369192
  H   1.07202236733489      1.66279148402221     -2.02368228103567
  H   -0.66763114750546      1.77423781618809     -1.72294870272839
  H   0.39033084707541      3.14058683286446     -1.29534469830644
