16
Coordinates from ORCA-job run
  C   0.75211120089273      0.06682370871268      0.08801222357500
  H   1.75778366111676      1.92245074547311     -0.00669877491818
  F   -1.23870047751923      0.00237755009595      0.51396936203315
  Cl  2.80281275410910     -0.30484106348809     -0.87823895196423
  C   0.71974600581637      1.58617182885940     -0.01104204910047
  H   0.38914760466218     -0.54964631935123     -0.71492237191111
  N   1.05492589813489     -0.47592523367434      1.36465434661030
  H   1.45283509526456     -1.39656334561839      1.22855745657013
  H   0.12280323662390     -0.57697315642468      1.76135622510857
  N   0.04859009347011      2.21648080133607      1.12655697570977
  H   0.59439748997341      1.98389532274933      1.95084992012419
  H   -0.81813982526533      1.68346962821704      1.20353785621083
  C   0.04870366938320      1.99409823863211     -1.30945347911806
  H   0.57444577626720      1.56002526374649     -2.16399710555626
  H   -0.97799273363650      1.62520628018456     -1.29084606280493
  H   0.04518055070668      3.08280975054998     -1.40248557056866
