16
Coordinates from ORCA-job run
  C   -0.70153157588110      0.30744932077947      0.09243866856745
  C   0.01708108597732      0.35674703784631      1.43214703901048
  Br  0.60127359821819      0.01368706201020     -1.39300878987583
  H   -2.62204503204346     -2.46061334364851     -0.58244456853665
  H   -0.79287330934491      0.58544385756879      2.14059849265865
  H   -2.21799344465436     -1.85144298430678     -0.43025884652134
  C   1.06227274808646      1.47213135385831      1.58744540538148
  H   1.46125427270316      1.51043526433347      2.61015269526391
  H   1.89630615268938      1.30244305168445      0.90114766429001
  H   0.61722386534808      2.44236201588570      1.34930059571747
  C   0.61627425909509     -1.01609993881702      1.81110632349637
  H   1.68092843728053     -0.94310362937040      2.05998864569322
  H   0.10323222871115     -1.45056382686893      2.67547712211311
  H   0.51449580044764     -1.71352881742375      0.97895133846888
  C   -1.44803818599600      1.47359121764791     -0.18563469026653
  N   -2.16032090063717      2.40903235882073     -0.36402709546070
