18
Coordinates from ORCA-job run
  C   -0.25012245597087      0.06395077764115     -0.34283261388839
  C   -0.05098568920825     -0.01614917111916      1.15485981662990
  F   1.00250318511079      0.23351279809201     -0.99922842602972
  H   -3.08210578088380     -0.56688185365683      1.63217895176640
  H   -1.08322236644390     -0.13018100595268      1.54000327276761
  H   -0.81791129498894      0.97539017783477     -0.56311153723378
  C   -0.96343053316058     -1.12458696431197     -0.93650863565002
  H   -1.89067979037093     -1.26389266298744     -0.36591330386954
  H   -1.19176441437450     -0.94698778780087     -1.99176556366831
  H   -0.34583851625548     -2.02303773571929     -0.86595128157234
  C   0.75089515045783     -1.24331570675694      1.57697422337229
  H   1.73607757119757     -1.26101155455083      1.09766651186016
  H   0.89706349764184     -1.23381346281948      2.66160082278957
  H   0.22098323458697     -2.16685043257221      1.33384777441354
  C   0.57558411109792      1.28404963794073      1.69093552632391
  H   0.82336636780706      1.97999016753040      0.88397127383628
  H   -0.11476084716497      1.78913627192477      2.37308354273169
  H   1.50552857092224      1.09250850728390      2.23681964542074
