17
Coordinates from ORCA-job run
  C   -0.22907554258454     -0.04470282875845     -0.27932344236421
  C   -0.12401129284490      0.02037220653006      1.16501294175810
  Cl  1.60235117929405     -0.02006962698188     -1.17790168760518
  F   -2.52802796538383      0.78883394856266      1.41478821942032
  H   -1.47271218163519      0.27564970861196      1.39662225108559
  C   -0.70835850530568     -1.35705440737890     -0.72940714869768
  N   -1.11892764222484     -2.41354198401489     -1.04288822574917
  C   0.47885309059318      1.29857099991072      1.70426417596212
  H   -0.05067215699655      2.17888345127125      1.33471409444657
  H   0.38994303765010      1.28742155085616      2.79243983818441
  H   1.54305738739506      1.38728421194172      1.44044635588280
  N   0.43759323470006     -1.14743803599618      1.82484161350935
  H   1.32050708612893     -1.39377736226895      1.37710380467170
  H   -0.18477508818728     -1.93799454875468      1.70722590542175
  N   -0.93946114828251      1.01348496098690     -0.96571834695154
  H   -1.73388599289618      1.21528894357559     -0.35263382273480
  H   -0.33607749941988      1.82654881190689     -0.98300652624013
