16
Coordinates from ORCA-job run
  C   0.47807884088362     -0.06461559765989      0.04053858065801
  H   1.72522571762491      1.69226818404572     -0.07636203007053
  F   -1.20172443699312     -0.00109243876900      0.05935743229987
  H   2.31848578653625     -0.37781185619998     -0.24359107627646
  C   0.66855109662045      1.45601624024574      0.01865528392592
  H   0.15178675255881      1.81639308663317     -0.87685215868601
  C   0.63733906462165     -0.76126867721678     -1.20785010608260
  N   0.50900076410786     -1.30433132528084     -2.25259439698138
  C   0.66274202736465     -0.83852114591557      1.34021046225802
  H   1.51125555497095     -0.47615660391416      1.91545006628466
  H   -0.25578336437305     -0.74850548690702      1.92627359225595
  H   0.84255862395654     -1.88996048300467      1.11289796716839
  C   0.07720018459704      2.14485322480863      1.24568637491001
  H   -0.98760076380483      1.93088609653211      1.31756625716517
  H   0.56443580737729      1.80790197672744      2.16518240689991
  H   0.22130834395103      3.22873480587505      1.17586134427107
