19
Coordinates from ORCA-job run
  C   -0.16276706079278     -0.06400382452378     -0.36149546787343
  C   -0.14043964124916     -0.10258550421526      1.16544006470629
  F   1.16954262409090     -0.09500207085391     -0.85365635315922
  F   -2.52033687937438      1.44923311427139      1.31899575568666
  H   -1.20345108835226     -0.10492821867452      1.44253392116453
  C   -0.78069697060756     -1.30926483007449     -0.87153739145376
  N   -1.25704919425311     -2.29981605793199     -1.28564732123499
  C   -0.88182284577178      1.14487730315289     -0.91688012676198
  H   -1.11065524974084      1.00989697160137     -1.97741210692746
  H   -1.77221666516605      1.31768493722399     -0.27089261990930
  H   -0.21827954129659      2.00584543771558     -0.80527207682997
  C   0.36644263510286      1.22587556597254      1.72857795671910
  H   -0.45417178368915      1.93610323864951      1.61287152791112
  H   0.55985734199776      1.11192775585448      2.80039691905869
  H   1.29258279073732      1.55875370693413      1.24698553045125
  C   0.63517732128447     -1.33250802689896      1.67327190218027
  H   1.45698053161004     -1.03391386988612      2.33055194132339
  H   -0.01709746574449     -2.00325544297179      2.23878898964863
  H   1.07708114121481     -1.91199018534503      0.85878895530012
