15
Coordinates from ORCA-job run
  C   -0.02209112459946      0.02907783960256     -0.19753415770155
  C   -0.67659398701030     -0.62248179610947      1.01955602261085
  F   1.37646471725518     -0.06518488298791     -0.00481143915165
  Br  -3.11077607378122      1.99511278515297      2.11615787896391
  H   -1.75951765086032     -0.49852267833981      0.95881783459494
  H   -0.37168105900788     -0.03169974851849      1.88706485839475
  C   -0.29530827863758     -0.77843210382668     -1.40383703306058
  N   -0.53036754901955     -1.42654235641394     -2.35439700410846
  C   -0.41463907593576      1.49286069177874     -0.38628442367780
  H   -0.90046131024829      1.66200143425906     -1.34834458572269
  H   -1.10285909848287      1.81044690061077      0.40305093151440
  H   0.49642418283574      2.09282851201894     -0.34824654186971
  N   -0.32185249162419     -2.02009850643357      1.22217802906212
  H   0.68356332852483     -2.12012130898972      1.15327420240109
  H   -0.73776452940833     -2.59185478180353      0.49671542775040
