15
Coordinates from ORCA-job run
  C   -0.25240471164028      0.00332470894847     -0.27183602352734
  C   -0.08378870152724      0.12647816305289      1.21063092067574
  Cl  1.17849356140000     -0.53012185643739     -1.18936260977908
  H   -2.44054869883133     -0.70661415166424      1.25748979070229
  H   -1.24315890257869      0.05627281798014      1.48780655835319
  H   -1.06391022928292     -0.73350097155219     -0.40944368620373
  N   -0.79680173359905      1.26759013214965     -0.90308921983195
  O   -1.29668902885170      2.09129551857627     -0.14339163289185
  O   -0.79769243985701      1.33853639126694     -2.12881506009142
  C   0.46248506246664     -1.16058040929653      1.81624039098382
  H   1.45434176552609     -1.42467227629035      1.44353378226157
  H   0.50623338255968     -1.05596661587480      2.90321028345537
  H   -0.25427374708902     -1.95572075862896      1.58494170867684
  C   0.63602414256238      1.29466772662545      1.65433874811293
  N   1.23539027874246      2.21226158114467      2.08734604910360
