18
Coordinates from ORCA-job run
  C   0.52092802377957     -0.09021539013128     -0.02031973675056
  H   1.48734708278264      1.61096993943271     -0.73220755640166
  Cl  -1.75142788086351     -0.35901628956101     -0.63892574648720
  F   2.43063995353522      0.15196017745451      0.54572550398350
  C   0.58991517594919      1.44529829210496     -0.12395988395440
  C   0.95892610894606     -0.87688982365331     -1.22965424058051
  H   0.46061477516414     -1.84454119662564     -1.25235546546643
  H   0.68971292306500     -0.34835088859984     -2.14570441402181
  H   2.03837168119773     -1.00332710384753     -1.16975139529182
  C   0.23147426807385     -0.78073342843156      1.29173985313949
  H   1.17534949521318     -0.95149216705755      1.80406208814747
  H   -0.41776717661009     -0.15696936793256      1.90193141943776
  H   -0.27234339229069     -1.72693097030414      1.10356786699421
  N   0.73416772452029      2.02415577598285      1.21454131616966
  H   0.83921354250976      3.02840027462865      1.11678486393746
  H   1.62198039348286      1.62971641432830      1.51872113111604
  C   -0.49632480386774      2.15247137859919     -0.82029300754377
  N   -1.17360789458744      2.93816437361330     -1.37336259642742
