15
Coordinates from ORCA-job run
  C   0.57456212570323     -0.03012279616155     -0.03761688231031
  H   1.66640044447527      1.67256156411576     -0.66652450095246
  Cl  -2.18483535403196     -0.72067975552955      0.00037055690819
  Br  3.12425840201820     -0.04037603492015      1.17276560196819
  C   0.72091979633482      1.46301515519263     -0.15049246985600
  H   0.28205590173127     -0.45707650488464      0.90573863207196
  N   0.66806826631307     -0.78406644881655     -1.08467517066993
  H   0.71262567441694     -0.35136980243561     -1.99599322024394
  H   0.28885771836393     -1.71656632100011     -1.01408116938596
  N   0.54187330612230      2.07410308149403      1.12387674479522
  H   0.68010539676942      3.07343805565496      1.05030429501715
  H   1.26769776153705      1.68484305063568      1.72031384702876
  N   -0.31131158007251      2.00320210305829     -1.14311721355200
  O   -1.05188624242220      2.90426613058960     -0.78900733995807
  O   -0.22107161725882      1.55329852300722     -2.28591171086081
