17
Coordinates from ORCA-job run
  C   0.90390159253141     -0.01496510950477     -0.06983036752149
  H   1.78015786890715      1.85139561438451      0.43476901796493
  Cl  -2.18104032326952     -1.29628057775552      1.18952371862172
  Cl  2.36813707072674     -0.33145761579902     -1.19469216066062
  C   0.80712577915778      1.50640048368301      0.05906162338247
  H   0.05114631276394     -0.40409721163501     -0.62771312628657
  N   1.03345321736053     -0.75938001738534      1.11751672386368
  H   1.45504537248498     -0.22570583540178      1.86463450317078
  H   0.11000985833480     -1.11063182874923      1.38207573061239
  C   -0.27584308309834      1.87434395621453      1.07619157963903
  H   -1.22974633743093      1.41505901511894      0.80816335282564
  H   -0.03335643522356      1.52093672794293      2.07941985438001
  H   -0.39128743785211      2.96262017187967      1.11606006790749
  C   0.51856946936980      2.17477317333079     -1.30006761506882
  H   0.47108346891043      1.44305188142013     -2.10796438011111
  H   -0.43966612809332      2.70061221624697     -1.27553288958583
  H   1.29348973442026      2.89707495600917     -1.56886563313373
