18
Coordinates from ORCA-job run
  C   0.53690419885488      0.02856075963534      0.06209134551194
  H   1.56458741821154      1.72490107571012      0.75721377350123
  F   -0.99570419077989     -0.28739715228604      1.01163732592786
  F   2.11827770287065      0.02186209849617     -0.69393571183338
  C   0.60486630676612      1.55695484195534      0.26828655258430
  N   -0.07634512139043     -0.54831492389239     -1.07603657972582
  H   -0.81719099136010     -1.14063850205661     -0.73252237775545
  H   0.62954392996486     -1.07899346666346     -1.56418432804300
  N   1.14544788040093     -0.85792906367155      1.12595808806047
  O   1.59016495990662     -0.31650422208297      2.13174383610041
  O   1.16848326779544     -2.06294565544886      0.90880277337283
  C   -0.48672995191356      2.18804848011681      1.11424531307358
  H   -1.46657947030654      2.03357952543241      0.66183704803610
  H   -0.51098672820412      1.74669157126585      2.10772100172294
  H   -0.27920458645355      3.26129864918980      1.17674463374827
  N   0.65967532140201      2.23899897837148     -1.02763901169111
  H   -0.16180884318150      1.93065107085208     -1.54082774638157
  H   1.44144889741662      1.80655593507646     -1.50874593620954
