20
Coordinates from ORCA-job run
  C   0.47982574428008     -0.13055365131500     -0.08919543283599
  H   1.51868595183237      1.53403610158281     -0.82855814020254
  Cl  -1.62647795162033     -0.52801081091533     -0.88702725094415
  F   2.39659846869070      0.16705186062100      0.64215434269646
  C   0.60335101667065      1.39111499533677     -0.26202294154713
  C   1.10240158524091     -0.92928685771746     -1.21605943648219
  H   0.66926205995631     -1.92771389033057     -1.25700668260162
  H   0.90886988897060     -0.44865356989047     -2.17784393740421
  H   2.17098469571067     -0.97129687057842     -1.02217482334562
  C   0.15458951413986     -0.82077024326030      1.21836355106025
  H   1.01840955140171     -0.73101383229245      1.86897604377860
  H   -0.72233509380712     -0.38954513716424      1.69091209244845
  H   -0.05329303053057     -1.87048012075938      1.00493188910221
  N   0.91060526448604      2.09620565565786      1.02718803366851
  O   1.77749860111325      2.96441050149731      0.98711644995800
  O   0.19501843245527      1.87473755618745      2.00107690588541
  C   -0.53055994297993      2.19815599649606     -0.88301198028373
  H   -0.74868976832171      1.83659746476070     -1.88547207048160
  H   -1.44002923356629      2.12021907553540     -0.29103825921466
  H   -0.20610575412249      3.24306577654827     -0.93772835325446
