16
Coordinates from ORCA-job run
  C   0.80968603632900     -0.06858710616132      0.11921385584795
  H   1.39580233371438      1.03330820570595     -1.56736478011501
  Cl  -1.37187507781955     -0.81840330058793     -3.19850862339704
  F   2.97748164159218     -0.30675356349021      0.08314605117371
  C   1.00921159102192      1.24233318545223     -0.57017255696185
  H   1.78474745704227      1.77729470465527     -0.02761691047983
  N   0.09663938261904     -0.97445293232636     -0.49821020653755
  H   -0.28218353282772     -0.85525141004713     -1.45900656248721
  H   -0.09485152137615     -1.85897304765726     -0.05593357342540
  N   1.01155836729145     -0.12875343962935      1.47955050875439
  H   2.03932844834724     -0.00548940790475      1.49593353755919
  H   0.79010239126398     -1.05037605192931      1.83881443938492
  C   -0.30882387468947      2.01952044849548     -0.63707983128450
  H   -0.13444731810065      3.02096080373992     -1.04020403731310
  H   -1.02334431159182      1.51314143502585     -1.28831863255297
  H   -0.74375201281612      2.12501147665897      0.36074732183432
