18
Coordinates from ORCA-job run
  C   -0.11809658595286     -0.02334737036344     -0.35811610519779
  C   -0.16403483721361      0.01999730234734      1.16282986902896
  F   1.19421869878373      0.05885328953575     -0.85418389233545
  H   -2.95547672518703      0.01916531128824      1.01023717762325
  H   -1.27217085463147      0.00527330227737      1.38469762532990
  C   -0.79909597295857     -1.26217284271088     -0.89285525176126
  H   -0.25410488076516     -2.14912377418488     -0.56297042750841
  H   -1.81894054822087     -1.25488740188217     -0.48368927470436
  H   -0.81679988239276     -1.23877550735556     -1.98452354118185
  C   -0.78581834254988      1.19366944483001     -0.87093541535121
  N   -1.17362410345280      2.18374223019158     -1.36989312612594
  C   0.55417488951087      1.20436972570645      1.77478623629854
  H   0.03167487312094      2.12059980612641      1.49142201983672
  H   0.52812863223077      1.12780515424301      2.86484219215421
  H   1.59257443687525      1.25679778681668      1.44102372051987
  N   0.42991030318835     -1.23101950876233      1.72221892437885
  O   -0.25846049790202     -1.89423435763631      2.49733093491921
  O   1.58899139751709     -1.51664259046728      1.40565833407674
