16
Coordinates from ORCA-job run
  C   -0.11769090473802     -0.00045106492860     -0.38342855367771
  C   -0.11188350453357      0.07747970519710      1.07642146444314
  F   1.15781162671502     -0.04404404639460     -1.01107025309436
  H   -2.42566577556973     -0.61846321413680      1.48039951115750
  H   -1.48277923458377     -0.12310652226458      1.35365132930598
  H   0.31958949536955      1.01348272294486      1.43651502121214
  N   -0.86183994596308     -1.07926155970876     -0.95878156504971
  H   -1.71134697574536     -1.17455763077177     -0.39597071287697
  H   -0.30768619357522     -1.91422351759458     -0.80808236008317
  C   0.42414888497934     -1.16919579116997      1.74718537145749
  H   1.29197938565899     -1.62258581888503      1.24836874051841
  H   0.72353791596535     -0.94145154538230      2.77540925438548
  H   -0.37410943710080     -1.92770994183981      1.81277966548644
  N   -0.72170959929768      1.31088690983213     -0.89767419727521
  O   -0.00167365484720      2.30784686502976     -0.84825574525153
  O   -1.89321208273381      1.30463445007295     -1.26551697065792
