14
Coordinates from ORCA-job run
  C   0.58436672090577     -0.07202998957140     -0.01038102105326
  H   1.44433341176564      1.84106457477113     -0.44622968034708
  Br  -1.93790200292368     -0.25402403804756      0.04490668538439
  Cl  2.98034048542435     -0.01160076324870      0.27045105611782
  C   0.50634096198195      1.45336699110080     -0.04690789311299
  H   -0.30996754135956      1.74765353109560     -0.70799849394289
  C   0.75985722650664     -0.78775076190726     -1.33805609158977
  H   -0.19390202366032     -0.90114783953120     -1.84828368698552
  H   1.45131366562583     -0.21999013396086     -1.96036834675986
  H   1.19916936524882     -1.76910495682132     -1.16550258297269
  C   0.57730547031478     -0.80209323197743      1.22656755335460
  N   0.57076845796895     -1.42762325982551      2.22599872670147
  C   0.28005834085305      2.06650529772445      1.25652092967689
  N   0.11085746134777      2.61526458019928      2.28013284552890
