17
Coordinates from ORCA-job run
  C   -0.29393216011347      0.01986386757907     -0.31171940142414
  C   -0.16664567251852      0.00993219575010      1.12748613807895
  Br  1.86813817076149     -0.00038711781039     -1.26630014195201
  H   -2.64189331465062     -0.47693714606730      1.17928571824460
  H   -1.39301176297596     -0.07808563977921      1.32153929523170
  H   0.21284597989344      0.95132048619387      1.53286634553881
  C   -0.88158149696181      1.28352131555041     -0.86054143541510
  H   -0.87946878657467      1.26461925844671     -1.94946311752818
  H   -1.92378573815731      1.30778813006656     -0.49687813184841
  H   -0.35220517421399      2.16645639825278     -0.50024805075190
  C   0.42692756982354     -1.21297915685467      1.79311264441527
  H   1.40139877927270     -1.45983860666795      1.35862052989970
  H   0.55687538098488     -1.03900970026383      2.86531462850195
  H   -0.23974877453705     -2.07539498139818      1.68949899479795
  N   -0.93660877285597     -1.10604922254865     -0.87761088605461
  H   -1.87497333624397     -1.07157794892667     -0.40317788896244
  H   -0.48883089093272     -1.94780213152269     -0.52960524077215
