16
Coordinates from ORCA-job run
  C   -0.87569268194770      0.38509347605843     -0.25729047109161
  C   -0.53047486763956      0.07011498359807      1.16729138061392
  F   -1.15801731052502     -0.82071048391905     -0.95689475799280
  F   -1.94416074092023     -1.97155026773089      2.14982965872308
  H   -1.52624119330114     -1.16444657045311      1.75380449005380
  H   -1.80989664790411      0.95760415347561     -0.27833808126474
  C   0.19737059316728      1.12007296855293     -1.08776296442394
  H   0.46996870629296      0.52336208933142     -1.96195095977286
  H   -0.17223735552797      2.08752567917960     -1.43898222212763
  H   1.09885889016893      1.30216786443355     -0.50055338882415
  C   -0.66318195110788      1.21161827862054      1.99613232202989
  N   -0.79335605172690      2.15321978406731      2.70579925659298
  C   0.77562986597433     -0.68845486877430      1.35112058635181
  H   1.68935051078290     -0.12192515442456      1.09999881755911
  H   0.87067417888906     -1.02019273412522      2.38881791969221
  H   0.75576605532507     -1.58918919789033      0.73009841388097
