14
Coordinates from ORCA-job run
  C   -0.12575477593967      0.02734920542452     -0.32577875900966
  C   -0.18611611885827      0.03049609351925      1.12950716411214
  Cl  1.57986491662264     -0.00575058209507     -1.11660869172512
  H   -2.58637643050825     -0.39109981748001      1.98639569532344
  H   -1.36738508700029     -0.05858338408044      1.44093649680692
  H   0.20424931342545      0.96259781350300      1.54327621969575
  N   -0.77967794663759      1.24641095967273     -0.90800758913848
  O   -0.44366422179022      2.34462131983555     -0.47699822981652
  O   -1.62572314736734      1.05279627748956     -1.78164253718400
  C   0.41289784539402     -1.20820570576634      1.76343582170155
  H   1.50079972669208     -1.27178946521438      1.65637889684049
  H   0.15106966266521     -1.22148986021095      2.82547248213134
  H   -0.03349375940900     -2.10703652853281      1.32518605591945
  H   -0.63148997728880     -0.81931632606463     -0.78580302565732
