18
Coordinates from ORCA-job run
  C   -0.16675902647508      0.03434011353012     -0.34254108482216
  C   -0.16518011579058     -0.06508798814209      1.11744937941144
  F   1.17751815207697      0.21079607463305     -0.94193479515108
  H   -2.49145084536267      0.02697358853543      1.91951956974898
  H   -1.47472604069998     -0.06831002862728      1.48425995242921
  C   -0.86569519715854      1.27015636789937     -0.75099855320492
  N   -1.43713901858448      2.23773416313834     -1.09582146455611
  N   0.32738335888737      1.12019223408178      1.80497977260855
  H   -0.47145422202968      1.71446485266973      2.02630970635887
  H   0.96723516116501      1.65136389560505      1.22510009027559
  C   0.40075779852366     -1.33808503409969      1.70322061531928
  H   1.47674086904451     -1.47271480001031      1.51450803825595
  H   0.25504818251847     -1.28978206169731      2.78658547024800
  H   -0.12883301528524     -2.22904304357105      1.34668372862732
  C   -0.76212210844854     -1.16120090871001     -1.06207320752877
  H   -0.12827589720630     -2.03256262327606     -0.89476344729011
  H   -1.76311348141307     -1.35737002967300     -0.66645571694107
  H   -0.81848455376181     -0.97306477228609     -2.13670805378896
