10
Coordinates from ORCA-job run
  C   0.61172211845558     -0.02185810100290      0.02813820190596
  H   1.53363016976673      1.88389014813060      0.37876985235241
  Cl  -1.63991279332201     -0.31549722652595      0.48875802107261
  Cl  2.85995699738667     -0.18316792539726     -0.52779380791096
  C   0.57802976898352      1.48993696144133      0.03201078128323
  H   0.42805571734991     -0.58274785174375     -0.86550949320558
  H   0.83600618466468     -0.53416312424531      0.94414273446228
  H   -0.21061626812215      1.84049428691013      0.69825620038590
  C   0.32235187663610      2.04318741194012     -1.29598503331138
  N   0.11294622820097      2.52389542049298     -2.34541745703447
