17
Coordinates from ORCA-job run
  C   1.21246534075925     -0.03329003254286      0.10904663082183
  H   1.59106449125907      1.95484226008837     -0.54262354408353
  Cl  -2.84784951465743     -0.35968072366876      0.12275409272147
  Cl  2.86639053091904     -0.02086110967876      0.90999518050522
  C   0.76622935163888      1.42418867183948     -0.06489026385527
  N   1.49178799453222     -0.48628276868199     -1.24962980851467
  H   0.60539236474699     -0.44835737110367     -1.74491745167867
  H   1.80427125840159     -1.45062296781137     -1.20364371215053
  N   0.33647949989056     -0.79701778345725      0.91883689539827
  H   0.50574815547341     -1.78555724212055      0.78268528299123
  H   -0.65508129454108     -0.61414215006438      0.73978425618911
  N   0.60028674355239      2.20988767479240      1.25311580593889
  O   0.36930273070378      3.40795341651390      1.06476363695522
  O   0.68872696298994      1.67497749944501      2.34903257703892
  N   -0.39244605810774      1.49687142717948     -0.88124932431303
  H   -0.61935890586910      2.45956025233516     -1.08806400611812
  H   -1.21125965169176      1.02335094693583     -0.48659624784635
