15
Coordinates from ORCA-job run
  C   -0.25976628331307      0.03625208590867     -0.31222462108105
  C   -0.09428061077132      0.07720678090606      1.12052084345532
  Cl  1.49276427045914     -0.11615943051000     -1.30377656128824
  F   -2.52254267731550     -0.55864841312371      1.53982658313318
  H   -1.45542857709252     -0.13762563881219      1.45411669781495
  H   0.31612877953537     -0.88018748220217      1.46383977511119
  N   -1.01715188036304     -1.07639468459774     -0.86062565680834
  H   -1.81157621486771     -1.16230348312083     -0.22168240304926
  H   -0.44414515892553     -1.90483511687421     -0.74115465105034
  C   -0.76096151484386      1.30101168347146     -0.86433031404821
  N   -1.18635817586471      2.32051604850066     -1.26655259107340
  C   0.61273380896380      1.27936897144438      1.70611733305695
  H   0.09747405963029      2.20838523638703      1.44379165140913
  H   0.63151419289050      1.21750531999641      2.79883513601563
  H   1.65047598187813      1.36763812262619      1.35409877840251
