14
Coordinates from ORCA-job run
  C   0.05023071789665     -0.04683044820049     -0.52004075419182
  C   -0.18336431288772      0.02283412644843      0.91620308630198
  F   1.46102767768071     -0.07561466481773     -0.93359032664611
  H   -2.32836093842687      0.16849687939335      2.00714558475404
  H   -1.56747080617707      0.01626802920624      1.33839004885130
  H   -0.35697692035514     -0.96587446031568     -0.96053123853098
  H   -0.35300176411366      0.83644589082154     -1.02270683357404
  N   0.12589998516954      1.32171253646002      1.48998840579654
  H   1.03383785164719      1.30692210395302      1.94917080943726
  H   -0.57425124353651      1.48453325477692      2.22352790928837
  C   0.33131104219194     -1.14209522499447      1.72483874171101
  H   1.40801000642085     -1.07387195689200      1.96025995620606
  H   -0.21697804610237     -1.17749429651708      2.68159758038679
  H   0.16988675059246     -2.10064176932208      1.21316703020959
