15
Coordinates from ORCA-job run
  C   -0.54654523390412      0.22323017125065     -0.33449748505111
  C   -0.42321242037888      0.00269433881915      1.17482636061547
  Br  -0.63267166934680     -1.50066929660374     -1.27014923169606
  Cl  -2.86265674075168     -1.67624057682340      2.70758869792131
  H   -1.31325458533189     -0.55221722101574      1.52849399251406
  H   -1.52636987992674      0.66456123976450     -0.54574349650869
  N   0.58240391638632      0.95795719182737     -0.86067323321905
  H   0.67500208547404      1.82346891005626     -0.33774936602791
  H   0.42073314692967      1.18814615936159     -1.83383399021024
  C   -0.46490920765472      1.33488783096812      1.77818117890220
  N   -0.44383196827607      2.43509959311976      2.19274983933880
  C   0.84728213723385     -0.76035773649366      1.60094806224507
  H   1.51505704622988     -0.13762265917507      2.19888308466237
  H   0.54789577268314     -1.62376835327917      2.19593697461053
  H   1.40144760063396     -1.09907959177664      0.72549861190320
