13
Coordinates from ORCA-job run
  C   -0.28446203655212      0.02168819709907     -0.33572815159159
  C   -0.09303244851168     -0.00170312898410      1.02723740558216
  Cl  1.92384940567161     -0.09906918111043     -1.56719054699264
  Br  -2.92172785878967     -0.16557870909945      2.37897126228084
  H   -1.59794343139059     -0.08466368504788      1.50626627088940
  H   -0.51597034104362     -0.89218672917944     -0.86765923141584
  H   0.19212217567728     -0.97020673635114      1.43572278947736
  C   -0.67449318228302      1.24046704366086     -0.98227765891306
  N   -1.07785383808046      2.24237272703259     -1.45194857156553
  C   0.36698889128763      1.21272821783331      1.78234354269578
  H   -0.15023019114047      2.11122635689661      1.43876371966586
  H   0.18504713552240      1.10211878226513      2.85377703292743
  H   1.44001571963273      1.35453684498486      1.61398213695982
