10
Coordinates from ORCA-job run
  C   0.48324577642932     -0.04403259887354     -0.04351010800438
  H   1.48842999419256      1.75310514629134     -0.48846844328500
  Cl  -1.47658450695799     -0.43452631882571     -0.65215921268975
  F   2.39827652778143      0.10610127632207      0.59038589356611
  C   0.53317135059893      1.46988744396889     -0.05156281854767
  H   0.96677581000516     -0.55195226842936     -0.85563812913592
  H   0.41769950758975     -0.55862937017063      0.89470130935126
  H   -0.29323658529906      1.91392020980621     -0.61152570763476
  C   0.49894484255532      2.00579157200984      1.30692049813908
  N   0.41674728310456      2.48381490790088      2.37508671824102
