16
Coordinates from ORCA-job run
  C   0.52049652542721      0.03522417392174     -0.01373385738053
  H   1.62725812254526      1.88427436116276     -0.07749377555793
  Br  -2.42028285576975     -0.16624381988253     -0.10701817890655
  H   4.15696799934697     -0.88374910118715      0.02735357572431
  C   0.57918942399401      1.54943766619946     -0.01141216208913
  C   0.68914901972658     -0.67560424723496     -1.22834870782798
  N   0.84119087525020     -1.27112329989607     -2.24488346887505
  C   0.61855444785295     -0.67192919284174      1.20396807001820
  N   0.71400408854210     -1.22186253983695      2.25510482642745
  C   0.00708686302937      2.12769846951498      1.28612130286055
  H   -1.03378257620898      1.81685913991164      1.39153003715271
  H   0.56541097377878      1.79016455865246      2.16495317782772
  H   0.05772041925729      3.22304431484307      1.25174794400313
  N   -0.07112017386507      2.04326995427917     -1.22680417571883
  H   -0.16511146360322      3.05192094177344     -1.15890862403450
  H   -1.00704168930372      1.64173862062067     -1.24017598362361
