13
Coordinates from ORCA-job run
  C   0.53273615615936     -0.02445896886771      0.04656276054315
  H   1.68403903370013      1.80724326405167      0.15031813557979
  F   -1.09073229233874     -0.07741222856144      0.39872183875981
  H   2.34994455682225     -0.22181773803563     -0.38638520845518
  C   0.65380438575678      1.49621624056022      0.00192185925883
  H   0.88053793837460     -0.54284902542459      0.92604929800336
  H   0.04580951295518      1.86493858408428      0.83317825540932
  C   0.55258049544622     -0.79170426044134     -1.17237513320229
  N   0.33243889192534     -1.40229016247873     -2.16104338430826
  C   0.11178164979031      2.05613656765346     -1.30534570198133
  H   0.72677605962711      1.72595633033777     -2.14617470172619
  H   -0.90645249094156      1.69770804004020     -1.46137809531809
  H   0.10332610272302      3.15135335708184     -1.29184992256291
