17
Coordinates from ORCA-job run
  C   -0.18504456305350     -0.03326613464341     -0.27835217928144
  C   -0.14710551927168     -0.02532117787262      1.18667380476338
  F   1.13570820973031     -0.13609306340028     -0.90760708091006
  H   -2.46730794950579      0.73942654534747      1.54544694483548
  H   -1.52955127235009      0.28341017006041      1.44655049680019
  N   -0.79020461763067      1.13461489022591     -0.88708823364527
  H   -0.16096976080107      1.90517623235191     -0.68502066222357
  H   -1.63993389122415      1.31113657824981     -0.34075450743760
  C   0.49139155139136      1.21282678174229      1.77348086731665
  H   -0.21168453401763      2.06034393876502      1.74804006651139
  H   0.71370552333164      1.00615823404537      2.82286966727802
  H   1.42809496781132      1.52464474372495      1.28552909310150
  N   0.29274980840424     -1.26590093551956      1.81338376867739
  H   1.05497389458774     -1.69347319544836      1.29254785013548
  H   -0.47394883928908     -1.93042540954500      1.82057895306350
  C   -0.88939314519241     -1.24819002955522     -0.75963554379647
  N   -1.45835986292055     -2.21157816852872     -1.11820330518853
