17
Coordinates from ORCA-job run
  C   -0.20416138045266     -0.19189024460059     -0.32217059143351
  C   0.22022891221245     -0.28886826816874      1.20213090874040
  Cl  1.06545102067355     -0.99812253304207     -1.36492783121317
  Br  -3.39539740821061      1.52271571182075      0.95256378220996
  H   -0.52435647134326     -0.94129865789876      1.67110084370149
  N   -1.43490437944365     -0.87340171367565     -0.62196101536951
  H   -2.19623092765796     -0.35163616386014     -0.17882347740560
  H   -1.42219064348231     -1.82242837475470     -0.26512929231838
  N   -0.25368325645623      1.18467517430174     -0.73160552478451
  H   -1.03800766926722      1.61295746947847     -0.23222979654164
  H   -0.52403268355199      1.17543740792820     -1.71069912608191
  C   0.18759041169472      1.05438089627518      1.94670393677340
  H   -0.82519639247380      1.45895624399379      1.93146781028066
  H   0.48250100494208      0.89481024625795      2.98716805312620
  H   0.87487486155014      1.75838088327135      1.47947609885211
  C   1.51810343589816     -0.92356640910611      1.43598929761130
  N   2.52805156536863     -1.45545166822065      1.71442592385272
