16
Coordinates from ORCA-job run
  C   0.15705460461512     -0.09281399538360      0.10112057297891
  H   1.68562649200593      1.26730893799019      0.11244943375686
  Br  -1.69345497809685     -0.57281465476839     -0.33308777135797
  F   2.73868650694150      0.73105855237278     -0.56067775320499
  C   0.46117566146738      1.36440249241406      0.12527541212238
  H   0.79121907712379     -0.51611609885250     -0.67754271864803
  N   0.59426511945392     -0.83279015889353      1.36082151733820
  O   1.48038923139751     -0.30915291476374      2.01974578906775
  O   0.11085163791654     -1.94008764869515      1.57088150273649
  N   -0.18040581574657      2.06596888803313      1.23678778162480
  O   -0.11948133585932      3.30049085405661      1.24850440073695
  O   -0.72461136211486      1.40592248794659      2.13001642440973
  C   0.20032979929646      2.05854407715893     -1.19573983958742
  H   0.79865769442865      1.54721658454273     -1.94919052931095
  H   -0.85815836965554      2.05877790422482     -1.47604016295820
  H   0.55529603682634      3.08625469261706     -1.13006405970453
