11
Coordinates from ORCA-job run
  C   -0.22180223359659     -0.00874468705941     -0.28770209330117
  C   -0.13784208749879      0.06224177818582      1.14230991504882
  Br  1.76514417902344     -0.11346565062870     -1.30837588409907
  F   -2.66848139909849     -0.26370207642850      1.29522265563835
  H   -1.53767299636971     -0.00562505707924      1.33507298453967
  H   -0.54106883835653      0.91929200917044     -0.76014586690276
  H   0.34347192208353      0.96189203145181      1.52955366152056
  H   0.25025770983560     -0.84901581278263      1.60580098682339
  N   -0.92158939015185     -1.13277109858931     -0.87061239396771
  H   -1.82610667533638     -1.09813785977975     -0.39480559331794
  H   -0.46047019053422     -1.97398357646053     -0.53739837198214
