15
Coordinates from ORCA-job run
  C   0.65256601815224     -0.09562123751384      0.01366539871209
  H   1.70697320788476      1.78342532229031     -0.21659376984207
  Br  -2.14246066832901     -0.18850776700601      0.08089846128851
  H   2.14940309024241     -0.11912652482619      0.93836157550329
  C   0.67931128198878      1.43304956127178     -0.07623675156486
  N   0.83022644995254     -0.72819321947290     -1.16748998464921
  H   0.58072555027273     -0.14973986604455     -1.95925987307389
  H   0.42682735993597     -1.65602989394723     -1.17412083737268
  C   1.13369952642878     -0.76982732864325      1.24199062889589
  N   1.03542501437641     -1.59186157197059      2.11602030738289
  C   0.21601607639249      2.04478078327755      1.18727401781235
  N   -0.05836087055701      2.66930642862778      2.14433851899652
  N   -0.05469279274755      1.84179443630381     -1.27022393259066
  H   -0.02308505358056      2.85165571586398     -1.34961288758369
  H   -1.02210419041295      1.54230516178936     -1.12983087191447
