12
Coordinates from ORCA-job run
  C   -0.42184157369580      0.04160870747076     -0.25884134812082
  C   -0.01504729729756     -0.18236878733154      1.18342967985720
  Cl  0.89986986840595      0.70139938972456     -1.28778973010903
  H   -2.64262241687905      0.83118822244243      0.66035104061507
  H   -0.98637890707551     -0.20478396460925      1.71147150229348
  H   -1.37740987061110      0.70281652103157     -0.15081697879178
  H   0.59190185525243     -1.06484315477837      1.37320497788029
  C   -0.84867111404771     -1.22747124473961     -0.82198371408329
  N   -1.21006734854272     -2.24743302092619     -1.28236887162211
  N   0.73060326846159      0.96802496457950      1.75744466545859
  O   1.60420808737848      0.70132924875321      2.58806366835652
  O   0.39429544865098      2.09851311838291      1.42473510826589
