17
Coordinates from ORCA-job run
  C   -1.02706308449060      0.08933389982750     -0.90638058770910
  C   -0.74353067354946      0.19809732599806      0.46269182616980
  Cl  0.97095310523112     -2.28468577536321     -1.54858090349410
  Cl  -0.05885833611398      1.10840037553868      4.06648513732627
  H   -0.74431303157470     -0.70541571939002      1.06983783963745
  N   -1.70747287844689     -1.00618874546655     -1.44607168950711
  H   -1.57135509084329     -1.81570049329782     -0.85321990672530
  H   -1.30230261904937     -1.25373648119847     -2.34242265276791
  C   -1.07497353539054      1.30369363535565     -1.65834039428758
  N   -1.05014217950579      2.33558222572900     -2.22632989733992
  N   -0.37060029855372      1.30320638605681      1.08020363657681
  H   -0.48210002471989      2.19883327582634      0.62686407613700
  H   -0.19784108990021      1.27750021489261      2.11712119309803
  C   1.43398383690895     -0.00593699779257     -0.90266154008819
  H   1.09695202944042      1.02903506050154     -0.89231784039211
  H   1.73382348681067     -0.35524155937539      0.07764280626926
  H   2.17138038374727     -0.18310662784214     -1.67391110290329
