15
Coordinates from ORCA-job run
  C   0.41596028753874     -0.07605051464327     -0.02494849425884
  H   1.77794519237389      1.53854624411720      0.26722824361973
  Br  -1.72398828177484     -0.14557042498286     -0.01903130351077
  H   2.24916060388535     -0.44586972052443      0.44989279049371
  C   0.70426686594453      1.41616744913991      0.10514624191466
  H   0.44769500491604      1.87547632755818     -0.85514639687917
  C   0.74549108062900     -0.70471571239640     -1.36409615990425
  H   0.58561466136765     -1.77779318126445     -1.26939480607356
  H   0.07105885766712     -0.30349609994216     -2.12374961246147
  H   1.77926367305267     -0.51494848954601     -1.65161791658557
  N   0.78033436711628     -0.86390483753794      1.16767882989983
  O   0.69985318357997     -0.24226755107928      2.25271531070643
  O   0.64516234215538     -2.10371038301798      1.08069140832132
  C   -0.00317286755427      2.15832630480318      1.14897902793302
  N   -0.49582497089749      2.90948058931632      1.90552283678496
