14
Coordinates from ORCA-job run
  C   -0.11031640133919      0.05961602963403     -0.30598061272311
  C   -0.08426109044662      0.01680141101791      1.15895233885381
  F   1.20185783011648      0.16445577750130     -0.93628544967214
  H   -2.51774349688599     -0.51250674715197      1.39111379724613
  H   -1.50567509152050     -0.24248173803682      1.39116574566176
  N   -0.74235023950397     -1.09010285012064     -0.92315800797509
  H   -1.65905384483628     -1.15640810902428     -0.46715815666172
  H   -0.21611680840580     -1.89350416810954     -0.58908182285807
  C   -0.80324820219376      1.29225245542283     -0.75953789923616
  N   -1.35758324630666      2.27388093016039     -1.08909750576269
  N   0.43095651785950      1.19007367234566      1.84938872324014
  H   -0.31118696789278      1.87539405772699      1.94095573820125
  H   1.18377227273246      1.62958056187834      1.32757245457450
  H   0.38948876862311     -0.91467128324419      1.49820065711136
