11
Coordinates from ORCA-job run
  C   0.86554298166844      0.00790750998079      0.23514046534909
  H   1.67173562476803      1.70383427017754      1.38220779444000
  F   -1.68467271384052     -0.61005264777339     -0.41027909161853
  Cl  1.71424365785788     -0.45136057212665     -1.30438082869222
  C   1.04759612940661      1.50850271099679      0.49970506009938
  H   -0.77527735394537     -0.40433282095891     -0.13278894413288
  H   1.55290043858709      1.98271044294125     -0.34721277413928
  C   1.37867726506905     -0.77884578190971      1.30245664143040
  N   1.73004429790261     -1.42258645001993      2.23096409498353
  C   -0.21988530945457      2.22334364853204      0.70327447207079
  N   -1.19942501801927      2.84159969016019      0.89479311020973
