15
Coordinates from ORCA-job run
  C   -0.42010672093962      0.14755516985192     -0.30924569257920
  C   -0.27872647777240     -0.05336970828724      1.22144897745115
  Br  1.19456162897067      1.19057908920003     -1.06473084014310
  Cl  -2.96997074940680      1.42227620462276      2.65708277066144
  H   -1.16046298844456      0.41270025579084      1.70370871067533
  H   -0.37072441347199     -1.12627858462206      1.41875954570893
  N   -0.50318325785291     -1.11900297464047     -0.94515491347978
  H   -0.62667170106714     -1.01513604789207     -1.94491412644421
  H   0.32774128303582     -1.67209582276752     -0.77274924713977
  C   0.93855970392181      0.41801060049652      1.86055949353470
  N   1.90574938334737      0.76128902611594      2.43133394402044
  C   -1.62655027869635      0.99982730948236     -0.64265374915689
  H   -2.51464312991921      0.50705447320033     -0.24161055848496
  H   -1.55909701404111      1.97030205012216     -0.15504248865171
  H   -1.71766526766357      1.13381895932652     -1.72414182597234
