15
Coordinates from ORCA-job run
  C   0.54956451904904     -0.04433614403355     -0.01182611907489
  H   1.57173960072015      1.79232889810759      0.32656070697823
  F   -1.20926631170621     -0.09419186481364      0.40267610584984
  F   2.32220163846768     -0.14328025374813     -0.35977289531058
  C   0.57365763825211      1.47735617203941      0.02378504510762
  H   -0.14866405894487      1.80486186625761      0.77137360483022
  N   0.27957383726547     -0.77966974247231     -1.21922786803654
  H   -0.54348978607903     -1.33608472179325     -1.04147552852131
  H   1.09459908623240     -1.34734482234858     -1.39865704987015
  C   0.81278271194471     -0.74335606601062      1.24724836400241
  N   1.02331761298827     -1.31820952685580      2.25056540305593
  C   0.22269599775743      2.06019223512675     -1.33446184736456
  H   0.94081067420336      1.72221666986975     -2.08206001541861
  H   -0.76881987385175      1.72123676314486     -1.63493762096935
  H   0.23317671370125      3.15562053752993     -1.29657028525826
