16
Coordinates from ORCA-job run
  C   0.33757669791335     -0.06894812240742     -0.07687415962334
  H   1.58916607473675      1.59869230006095     -0.56156329312942
  F   -1.25216765088997     -0.05848082325333     -0.57808283980082
  H   2.01930406824143     -0.15851719853232      0.71787165789163
  C   0.60126883989315      1.43414186622527     -0.14515365367610
  H   0.07159779116201     -0.46578025691176      0.89106182542296
  N   0.81273852024291     -0.89699720616710     -1.15616679506719
  H   0.02734203330996     -1.46189681132532     -1.45074827874877
  H   1.57084692545144     -1.46166937618890     -0.81105817192894
  C   0.40552030152534      2.09397863853337      1.20101324777893
  H   -0.61967755775658      1.94047621269311      1.53861034508614
  H   1.10738789022829      1.62526751564303      1.89051174140198
  H   0.59306961950377      3.16944784862957      1.15412400816696
  N   -0.31384895951004      2.09832616083409     -1.16276357054149
  O   -1.28694946968321      2.74598776947194     -0.77847397631924
  O   0.00767487563136      1.97833148269483     -2.34341808691333
