21
Coordinates from ORCA-job run
  C   -0.18403883466650      0.00991161669118     -0.33446718297617
  C   -0.17286883992371      0.04306338479213      1.12256159599340
  Cl  1.69931787907045     -0.02641916769153     -1.11987995463863
  H   -2.66741612913979      0.07607183330051      1.53818470074050
  H   -1.42111735286453      0.05415587836615      1.33577566666295
  C   -0.81613904029862     -1.23863016514534     -0.90160922354823
  H   -0.26170553704646     -2.13794419457546     -0.63550418655414
  H   -1.82854178155301     -1.29756899104871     -0.47272376752459
  H   -0.87922375633275     -1.18537913607077     -1.99100375981448
  C   -0.78870308492354      1.24889719007076     -0.95007607351172
  H   -0.85102484035034      1.15669708994344     -2.03697391623808
  H   -1.80014978312968      1.34582274743455     -0.52556643407528
  H   -0.21492360213774      2.14489884224824     -0.71465601479859
  C   0.34777715398368     -1.20192204496000      1.81272608980397
  H   1.39717242286517     -1.40493533479224      1.55961979138999
  H   0.27353894526129     -1.07706690638685      2.89853627116129
  H   -0.24740913539219     -2.08421613064645      1.56016373987369
  C   0.35168301222047      1.32321669701194      1.74472406243917
  H   -0.30525080925461      2.17133645720425      1.52820996142129
  H   0.38031967713949      1.22153932970169      2.83461939660266
  H   1.36444343647293      1.56584100455254      1.39674923759102
