16
Coordinates from ORCA-job run
  C   0.25475097773615      0.12359566959026     -0.31806041801933
  C   -0.23720323842487      0.19283398079791      1.14980865750638
  Cl  1.77658784782318      1.07290248521145     -0.61314059960534
  H   -2.28644902773268      1.94264891696612      1.27595934323476
  H   -1.22622026465393      0.81282627364668      1.17062299456833
  H   0.55169771468440     -0.89734292448424     -0.56963299478174
  C   -0.80901799922696      0.61033743292725     -1.28230337283938
  H   -0.46295532430183      0.54219497978400     -2.31714604352993
  H   -1.70059689862713     -0.01053303082772     -1.15387745124010
  H   -1.10451080399563      1.62957667467968     -1.03709981000830
  C   -0.50226759912954     -1.15894074943661      1.60061389468728
  N   -0.73844329541003     -2.25979328539658      1.94858789918969
  C   0.63318984196128      0.94683802537592      2.14903281014375
  H   0.66781159425946      1.99722453271740      1.85566323346536
  H   0.14630863182124      0.90117096285894      3.12634089536393
  H   1.64910784321693      0.55106005558944      2.22568096186452
