15
Coordinates from ORCA-job run
  C   -0.26149334890758      0.03080464875935     -0.41971109336170
  C   -0.12083183084419      0.11546085021781      1.12911171153255
  Cl  1.44490881493959      0.01017286977582     -1.13344051960183
  H   -2.68930501129359     -0.75833415753979      0.93841139692415
  H   -1.19927700824035      0.08239802143959      1.45188719005077
  N   -1.02875961776742     -1.08605008753399     -0.78477349853637
  H   -1.93395685901495     -1.00791829786916     -0.05955582948701
  H   -0.52465062996064     -1.92550389353050     -0.50096420182637
  C   -0.89822152569237      1.24680800862585     -0.94917571512819
  N   -1.40148835090742      2.19645098057974     -1.42361436759888
  C   0.55869200477526     -1.06075314488768      1.64076773868927
  N   1.07457821708885     -2.03193993284354      2.05447492900546
  N   0.53242204002904      1.35307278145318      1.63496792384880
  O   1.66645572852992      1.27610163654227      2.10849282514626
  O   -0.12920262273413      2.38543971681105      1.52840151034311
