19
Coordinates from ORCA-job run
  C   -0.16143808177611      0.05469196721236     -0.35814182441826
  C   -0.13930734633303     -0.01535178199765      1.18295152491724
  Br  1.76040599473190      0.00535420520922     -1.04216723436198
  H   -2.92582670513227     -0.84449278869712      0.72195075280183
  H   -1.22666578669694     -0.02824812558404      1.39934843669929
  N   -0.87718375454969     -1.05129560407485     -0.89647278679500
  H   -1.82626738708273     -1.01412290476854     -0.39308520169911
  H   -0.45119334852686     -1.92058534462947     -0.58881823127778
  C   -0.79506285493803      1.32797655121946     -0.87501509346712
  H   -0.84985817353917      1.25967968981638     -1.96147604407377
  H   -1.81049244176496      1.36318594505761     -0.46400024052925
  H   -0.25056738260981      2.22560366297405     -0.58564568535739
  C   0.54029494551420     -1.24019852089443      1.77627738327481
  H   0.86531659414318     -1.93391481384181      1.00103242400511
  H   1.42877232734353     -0.94960711020071      2.33430588242662
  H   -0.15856383639203     -1.76372637789356      2.43218787856219
  N   0.38972103596745      1.24550103634191      1.79460889637465
  O   1.57347431640246      1.30908878327749      2.13530037283412
  O   -0.40564811476109      2.18279153147374      1.90540879008380
