15
Coordinates from ORCA-job run
  C   -0.32378193410020     -0.12961134989655     -0.11122550139366
  C   0.11566618731870      0.06667565514725      1.17069738183015
  F   1.09041617478494      0.08008716490020     -1.60158043990443
  Cl  -2.70694996267244     -0.10340867068396      2.46266834184455
  H   -1.58654465454449     -0.11794372397737      1.66145598719473
  H   0.42107773973144     -0.85131871615653      1.66637582282020
  N   -0.57476650037316     -1.44177650745774     -0.55823250778831
  H   0.11592357516354     -1.48854732112509     -1.31272125093974
  H   -1.49307659403336     -1.45122809692641     -0.98935899244924
  N   -0.99995058187819      0.96647725113339     -0.82160167171327
  O   -0.72397630577196      2.13435797764772     -0.53338092017692
  O   -1.87079109681074      0.65819271538794     -1.63782896912883
  N   0.57072198535313      1.26121858004090      1.75765421168580
  H   0.20768105942880      1.37328545378455      2.69592057573479
  H   0.32143090840396      2.05073958818162      1.17876793238410
