16
Coordinates from ORCA-job run
  C   -0.26274038070806     -0.06543647545494     -0.24533890646456
  C   -0.30716899316972     -0.17815213994493      1.18809555530339
  Cl  1.71964575078242      0.04886909793123     -0.86393829554579
  F   -2.64352388281999      0.75045648585576      1.37638033997737
  H   -1.68417851901381      0.10549987801231      1.31566024152896
  C   -0.69997210084920     -1.26710664243253     -0.95122875030167
  N   -1.09914138232583     -2.19501984732343     -1.55266574766217
  N   -0.81863324642432      1.12211303531653     -0.85460281125837
  H   -0.20007887813173      1.89221817382505     -0.62860308284837
  H   -1.69368835598261      1.27407989442063     -0.34858158525553
  N   0.16785517402254     -1.45954393705757      1.64503706631047
  H   -0.05596006320501     -1.53839521454167      2.62959651015116
  H   1.18537668042814     -1.46926230202118      1.56910968722703
  N   0.20849821172869      0.96789274113346      1.92134969348872
  H   1.03671081835048      1.33952801232933      1.45806172443471
  H   -0.50618083268197      1.68382923995197      1.95970836091467
