15
Coordinates from ORCA-job run
  C   -0.00844290208029      0.02946299701237      0.16065424400145
  H   1.74244603386896      1.01182286279859     -0.08267286105994
  Cl  -1.82894104559448      0.20841969766689      0.21626541521822
  F   2.73452820200905     -0.27493781992843     -0.32791146638644
  C   0.67641149431588      1.38080359807972      0.01934540488757
  H   0.21486698846816     -0.51265281301716     -0.75795934223545
  C   0.49759496183810     -0.75744754643730      1.34392459028114
  H   0.29090763574775     -0.24014626825011      2.28445471192204
  H   0.03640923834392     -1.74760815887109      1.37479050031508
  H   1.57373888236405     -0.83706945930778      1.14010700198480
  C   0.50226645768559      2.18944935647897      1.22197864828829
  N   0.38926781537014      2.88056135225337      2.16699120801540
  N   0.25406914941469      2.13396172718139     -1.18501096663691
  H   -0.15570356397224      3.01721007580539     -0.90638757254389
  H   -0.48992934777926      1.61624039853516     -1.63837951605134
