16
Coordinates from ORCA-job run
  C   -0.00328515457941      0.07236892098526     -0.41051565012723
  C   -0.04746058818594      0.15906116875694      1.05044287850016
  F   1.29971851565451      0.22224448811145     -1.01272015192307
  H   -2.19938684562079     -0.75060680116018      1.68489011990790
  H   -1.35665319315607     -0.12560109502993      1.36889306869804
  H   0.28510155726393      1.13530686303073      1.41067079759860
  C   -0.59055530627524     -1.19073824648588     -0.97835799548663
  H   0.07467595733452     -2.01761867648877     -0.72765197437052
  H   -1.56550044251837     -1.37314539055462     -0.51938443858501
  H   -0.68290149798329     -1.12277083340662     -2.06306211093678
  N   -0.74984490275690      1.28312071391978     -0.93565678341902
  O   -0.21556658750827      2.38004729854777     -0.77239224835848
  O   -1.85745278327968      1.11630970081191     -1.45275707792840
  N   0.52215237291238     -0.95611452791804      1.77639433847414
  H   -0.23873334119393     -1.61518166723298      1.97117136776850
  H   1.24763223989256     -1.43432191588680      1.25672586018781
