16
Coordinates from ORCA-job run
  C   -0.13138176940554      0.00397553848698     -0.34819000701323
  C   0.25670018972629      0.05196107644008      0.95870580428564
  F   1.66573243452618     -1.19694973590126     -0.95230985144810
  Cl  -2.63687217501639     -0.24927890837997      2.18120408886626
  H   -1.49148024357357      0.00909874885781      1.50826714940952
  H   -0.13333866601088      0.93656208001404     -0.90597675158966
  C   -0.85919429018883     -1.14466879078102     -0.95428582366778
  H   -0.79942244648365     -2.02644784940748     -0.31915062621253
  H   -1.91575118528957     -0.87317525839968     -1.09563341702363
  H   -0.40264228940915     -1.38278289100434     -1.91102688742603
  N   0.84793200878366     -1.05274491458883      1.55777257594021
  H   1.26758150433473     -1.56001113573631      0.76341563870874
  H   0.28159913184438     -1.58254847385819      2.20222339878357
  N   0.65519542501990      1.37629227988142      1.48863129549862
  O   1.34831306647989      1.41756859529213      2.50371827207469
  O   0.20862930466254      2.38080963908463      0.92148514081366
