11
Coordinates from ORCA-job run
  C   0.54168056364160     -0.00027904441371     -0.00838763897137
  H   1.75451281544259      1.62004873080227     -0.05557334897044
  Br  -1.68522389988261     -0.29768224159776      0.09952344288368
  F   2.67457395151859     -0.16009051035186      0.06482487881827
  C   0.67272483659447      1.49292765363648     -0.03498500767853
  H   0.71537556005201     -0.52221838063933     -0.93191799827857
  H   0.78511243298216     -0.51538413954170      0.89927080623283
  H   0.26681067220512      1.90184254207862      0.90317641131232
  N   0.07328183378258      2.08168650563871     -1.23534624634116
  H   0.25361568455680      3.07870212024853     -1.22753338897571
  H   -0.93054445089331      1.95048676413976     -1.17981191003131
