11
Coordinates from ORCA-job run
  C   -0.24169988313318      0.02239505373998     -0.24683848949656
  C   -0.06709889728884      0.08257686326891      1.11103699417849
  Cl  1.90882179928899     -0.36765675605217     -1.47122773555035
  Cl  -2.89696306858525     -0.03641401304163      2.00040765002568
  H   -1.52223103902988      0.10404130334897      1.35007612201476
  H   -0.53305691059531     -0.91484810931413     -0.70116500640668
  H   -0.44514753822529      0.92575816629345     -0.80852462601243
  H   0.19951465547877      1.04405443253049      1.55044871562788
  N   0.38343342995697     -1.06719220794851      1.84860747651113
  H   0.87542716475034     -1.68218614249793      1.21133166136329
  H   -0.39163971261734     -1.56487859032743      2.27039723774480
