19
Coordinates from ORCA-job run
  C   -0.30312467003385     -0.04148720291011     -0.14583025371219
  C   0.04856175155932     -0.03376490919448      1.34472058958465
  Cl  1.50869273952511     -0.12757376818568     -1.07076733218805
  H   -3.20221374317934      0.42524446065562      0.15454441511266
  H   -0.95490423006291     -0.11469265919717      1.79720420495762
  N   -0.92495326972053     -1.29328147716811     -0.49356428032583
  H   -1.03378515516558     -1.26586101147904     -1.50336290458962
  H   -1.88258884601635     -1.17899314485998     -0.12780992935205
  N   -1.01195734766410      1.02182686427846     -0.65069575456124
  H   -0.69559925421180      1.90580013659695     -0.26524922025590
  H   -2.11388067298136      0.82007902465130     -0.32839094395801
  C   0.67279321977372      1.27273355480968      1.82139424433095
  H   0.00295448200107      2.12413372302868      1.68170726793775
  H   0.90160001926167      1.20968009436504      2.89029378862728
  H   1.60287189867907      1.46440124999097      1.28029466778330
  C   0.88361981382553     -1.22903841351346      1.79269054179130
  H   1.93075060485292     -1.08849488224674      1.51728901927966
  H   0.52192507575425     -2.13762803256243      1.31288034103806
  H   0.82302758380317     -1.34464360705952      2.88138153849969
