16
Coordinates from ORCA-job run
  C   -0.20945299730127      0.04445204031341     -0.28441679034420
  C   -0.14962592424016      0.01022790932388      1.17803368140769
  Br  1.76705043530859      0.21398250061944     -1.18246598872629
  H   -2.43848076593428     -0.88838818475010      1.78944119814815
  H   -1.32485979952227     -0.19168698212472      1.44663502982031
  H   -0.60930179404956      0.99295369008196     -0.64940742711744
  C   -0.88367097395461     -1.14179101735821     -0.90778775576191
  H   -0.29147252421124     -2.04980143810351     -0.78900330620733
  H   -1.82334916076706     -1.28346619028589     -0.34317900179137
  H   -1.08532270912625     -0.99171322868415     -1.97031949220550
  N   0.29470420699073      1.22558510307112      1.84196258719957
  H   -0.26668638262068      2.00057408032451      1.50204973385938
  H   1.25813789348034      1.40333768231086      1.56346353176492
  N   0.49177370675077     -1.15588961883953      1.73906765611055
  H   -0.25021725864177     -1.78589440258471      2.04433778482789
  H   1.06190404783870     -1.62328194331434      1.04429855901558
