14
Coordinates from ORCA-job run
  C   0.15149646063685      0.09812629306370     -0.44944382310781
  C   0.02726364834093      0.08771669200410      1.00846432036715
  F   1.50442408884848      0.28419976290312     -1.02020662710095
  H   -3.33121936538402     -0.07902799964340      2.16032949414209
  H   -2.62263306992098     -0.07827066982531      1.92565482089560
  H   -0.14984376663733     -0.86779594924682     -0.87377980650192
  H   0.61692115856193      0.90756327941505      1.43873340641920
  C   -0.64045964716467      1.23188374575635     -1.07961869644609
  H   -0.46157107960018      1.27556532203686     -2.15859192046347
  H   -1.70697874982556      1.11059668969773     -0.88677155233816
  H   -0.31664272049601      2.18009408190971     -0.64042010526586
  N   0.63496934737194     -1.15139658092192      1.56731046236157
  O   -0.06653126878229     -1.88893392464525      2.27767132999750
  O   1.82041496405089     -1.44182074250393      1.32897869704114
