16
Coordinates from ORCA-job run
  C   -0.19837845317999      0.01742217273105     -0.24169646333633
  C   -0.08638022006038      0.02768064837781      1.20542845424476
  Br  1.57167057815516      0.01166414843193     -1.32801899382996
  F   -2.56424412352173     -0.48847697192791      1.40778360687288
  H   -1.32188253945973     -0.03465875590398      1.41674889951757
  H   -0.72549926744363     -0.86228700375510     -0.59554310832660
  N   -0.94389745594396      1.17585331204157     -0.83857331979382
  O   -0.75861246509781      2.30169600653359     -0.37809301488644
  O   -1.70026011628419      0.91960338048548     -1.77130967209543
  N   0.71560723627511      1.10896889257305      1.78402964424578
  H   0.47560049005486      1.14645499529463      2.76993033802084
  H   0.40200843677931      1.98352257953608      1.38092410393056
  C   0.39800219430403     -1.31519247545036      1.71532343855490
  H   1.42342577225666     -1.53141868330513      1.39132258039873
  H   -0.28572260285584     -2.10005527547407      1.38593748381681
  H   0.37532253602213     -1.31150697018863      2.81035602266575
