18
Coordinates from ORCA-job run
  C   0.05336239732667      0.05640754425574     -0.46857368158222
  C   -0.32711044530628      0.10611922647553      1.02323861065908
  Cl  1.81321508080833     -0.14458028824846     -0.69233182745419
  Br  -2.15868246747839      0.04179421203878      4.16692185665813
  H   -1.41791003322876      0.27037314964681      1.01707888410939
  N   -0.61628886527013     -1.21632314438490     -1.04111856786789
  O   -1.77909352399423     -1.08029565776252     -1.42436752477554
  O   -0.00722763747878     -2.27469385755581     -1.00344674341151
  N   -0.42970042376535      1.17081893276128     -1.21701102528450
  H   -0.71191402088443      1.90397186949225     -0.58104735387999
  H   -1.23996909371174      0.88606662607593     -1.75149769440632
  C   0.33075134768242      1.28908522762602      1.72233658179758
  H   0.16578904929550      2.24366305252657      1.21468782044676
  H   -0.11403232755299      1.35397693896202      2.71713870802373
  H   1.40327124218330      1.11031919862631      1.80683909057521
  N   0.05163197617089     -1.10104359757621      1.73206404479968
  H   -0.51332990268631     -1.87914934320902      1.40687820787831
  H   -0.26450235210976     -0.94630008975038      2.69164061371433
