15
Coordinates from ORCA-job run
  C   -0.13666071758491      0.00577112122091     -0.36113751783682
  C   -0.09379275659886      0.07639669203048      1.14691226230400
  F   1.15464948931360     -0.22475462522579     -0.89308939877496
  H   -2.32461043868840     -0.74787386274727      1.58265069210112
  H   -1.33041764762792     -0.05019519514657      1.43397384331700
  N   -0.97123849497791     -1.06182265574172     -0.85930544220902
  H   -1.77200731416729     -1.11090899552419     -0.21301243230537
  H   -0.44687473965999     -1.91783241578755     -0.71126757750142
  C   -0.59944335688456      1.28818847021204     -0.93891515880644
  N   -0.97336137370635      2.30072932609096     -1.40117070875053
  N   0.38320474459893     -1.13038571939763      1.78344504055402
  H   1.06629808136175     -1.61354463751130      1.21325606554936
  H   -0.43873818500244     -1.72229120834930      1.93126218437589
  C   0.53461183503667      1.26888213539543      1.65854520021719
  N   1.02191087458768      2.25482157048150      2.08444294776600
