18
Coordinates from ORCA-job run
  C   -0.33869001859306     -0.34195173289004     -0.96288884136451
  C   -0.44022904901053     -0.00559821923151      0.42255544238907
  F   2.47675639417663      1.64074157235970      0.34853881369920
  Cl  -2.07158241418858      1.60073365633497      3.08763535689782
  H   -2.16561912418549      0.63681228656003      2.17631881095393
  H   -0.72120769983453      1.02305218587618      0.60633591879980
  N   -1.14008825108135     -1.28765998252048     -1.82344057096615
  O   -1.42486626149934     -0.92384233324391     -2.95933578779473
  O   -1.36220995060662     -2.38496869636636     -1.32047089037781
  N   0.73303703951585      0.23987574772371     -1.20287247833185
  H   1.87581292401178      1.19263122672701     -0.21820753036153
  C   0.35815864540375     -0.75040620423700      1.44830192254380
  H   1.18946771568242     -0.13965426459090      1.80521071300342
  H   -0.28953809992209     -1.01256086669694      2.28662771659557
  H   0.74145214579743     -1.67884701362536      1.02214276709198
  N   -2.40350825294183     -0.64402761227214      0.95525312339644
  O   -2.56481283125911     -1.70274072849306      1.59728649481271
  O   -3.16613291146531     -0.33920902141388      0.01300901901281
