13
Coordinates from ORCA-job run
  C   -0.18969841964740     -0.04367116722839     -0.26319795610773
  C   -0.22340971226511     -0.24731319100143      1.24598412816695
  Cl  1.55491429754225      0.40715901323368     -0.72574447092354
  H   -2.84666043450468      1.62131461537030      1.18762811720638
  H   -1.27691042269440     -0.31452859272654      1.53497849282020
  H   -0.28640367447256     -1.01979615520372     -0.75989508458557
  N   -1.12532912739484      0.91436272406343     -0.75312434113947
  H   -0.66171798723544      1.74489941440688     -1.09240095679693
  H   -1.79954684905261      1.21041917051486      0.01070837288326
  N   0.51929660830481     -1.40431963875515      1.74594081763783
  H   1.47174069987732     -1.34825945340832      1.40218016648360
  H   0.11571475418249     -2.24579248773176      1.34912191068063
  H   0.14961026736017      0.65881574846617      1.72641080367438
