16
Coordinates from ORCA-job run
  C   -0.29745860623848      0.13040403531778     -0.39163076876825
  C   -0.28511214067963      0.38609649521023      1.15585427121948
  Br  1.46346611176654      0.59952222583662     -1.20593632875105
  Cl  -3.58029198884431     -0.17454959712386      1.00375044417645
  H   -1.06828638751291      1.09840682513663      1.39855012793525
  H   -0.48356352897091     -0.54352117089736      1.68381242791314
  C   -0.53063919802469     -1.34618423364962     -0.65356395465782
  H   0.24892283346925     -1.94964628757520     -0.18442303488700
  H   -1.50505471320662     -1.60254424499188     -0.22725801483444
  H   -0.54261209669483     -1.52635380349719     -1.72860807829049
  N   -1.28632826055152      0.89913499442655     -1.09458174912465
  H   -1.14925023919118      1.88534465963887     -0.89630825864971
  H   -2.19015098012031      0.63162739248998     -0.68655400060213
  N   0.98393207069434      0.92034733361893      1.69736659661791
  O   1.82072095768337      0.11228412453242      2.10206665001311
  O   1.13082616642190      2.14281125152715      1.69164367069018
