13
Coordinates from ORCA-job run
  C   -0.22644007918776     -0.00996058064435     -0.22859244324409
  C   0.14879772615076      0.10193754115531      1.09606942665631
  Cl  1.63840586147725     -0.61912869398668     -1.76197449743272
  Cl  -2.67112852999217      0.23515400225131      2.09929805826425
  H   -1.17774785278382      0.16442684785372      1.04376929911995
  H   -0.67238638883693     -0.93644611718391     -0.55149970651651
  H   -0.43373369364735      0.88327625178242     -0.80200813822257
  N   0.48395118635222     -1.04178935095380      1.86137349912231
  H   0.73579900542921     -1.80370301504773      1.24603543008846
  H   -0.29664198396899     -1.30203442299842      2.45497676087072
  N   0.62485419338839      1.30598589180474      1.64756020079501
  H   0.61018898004606      1.23571148978437      2.65585325036010
  H   0.06244157557312      2.09536015618303      1.35740886013879
