15
Coordinates from ORCA-job run
  C   -0.27016799247721     -0.10354708122479     -0.16097518342363
  C   -0.19321696260597     -0.05642246733170      1.34769912304846
  Br  1.60750600099348     -0.02624064536400     -0.93829334466661
  Cl  -3.69291368089585     -1.03327923026698      0.88231260204719
  H   -1.23451065782167      0.03357875255145      1.68213407061078
  H   0.35282899261466      0.84586370527045      1.63113019200894
  N   -0.93916826552669     -1.20183602264260     -0.64529171655934
  H   -1.16627249456501     -1.09160889455933     -1.62598338515866
  H   -1.80972467904011     -1.34098323419746     -0.09546093237855
  N   -0.83149139090277      1.25967517016289     -0.69268270533404
  O   -0.65459497826764      2.26459359578612     -0.01362839903720
  O   -1.39474744175825      1.22026357368154     -1.77935162010197
  N   0.38628892695440     -1.29377182407899      1.87582519753336
  H   0.91762723393718     -1.07667166569576      2.70865910073804
  H   1.02664738936146     -1.68838373209081      1.19846700067322
