14
Coordinates from ORCA-job run
  C   0.38470453024917     -0.04493121098066     -0.02173692057470
  H   1.08319111829919      1.81251762375653     -0.75987295056691
  Cl  -1.67398946368887     -0.60170912799107     -0.07529832882792
  H   2.39258089032242      0.30653312164889      0.62459862462038
  C   0.31121807196784      1.46756202754282     -0.06018271159930
  H   0.54216835429927     -0.51139899144209      0.93108372432761
  H   -0.66249617724143      1.77559373732649     -0.45323145802531
  C   0.83184115775497     -0.75190657407196     -1.28265744306073
  H   0.21565393653039     -0.41952495563668     -2.12255839736362
  H   1.87773801190557     -0.53764890005095     -1.48390899424547
  H   0.69364641919981     -1.83000219045179     -1.18305000079059
  N   0.46378350144941      2.01244787401801      1.28830695213449
  H   0.51088837568574      3.02479983012515      1.22152906801557
  H   1.38997127326651      1.67181773620730      1.55942883595651
