15
Coordinates from ORCA-job run
  C   0.38799789330512      0.01920225422281      0.08440592526286
  H   -0.68664670272485      1.78476088916017     -0.35608392419080
  F   -0.76293660043487     -0.30044657137336     -1.00615035431624
  H   1.54218666397922      0.14699168940848      1.50218053954575
  C   0.00116373377037      1.45594390320868      0.42684241017917
  H   -0.52807321005484      1.43920023409084      1.37780082671310
  N   1.49112763336885     -0.22269514930840     -0.78981806653956
  H   1.20412325229036     -0.96673120349628     -1.41402314035249
  H   2.27076331039504     -0.52683084613173     -0.22906525381117
  N   -0.06852578290326     -1.09801964590348      0.97410194479103
  O   -0.98038802743446     -0.87731736601303      1.77051805768168
  O   0.40689258996441     -2.21544428654265      0.75915237660978
  N   1.09896920863738      2.41291255971364      0.48937276396534
  H   1.58859284094969      2.32960834428799     -0.39750916341724
  H   1.73465319689183      2.00251519467632      1.17378505787881
