11
Coordinates from ORCA-job run
  C   -0.16290138901360      0.04274142099741     -0.30562841861686
  C   -0.14399580030309      0.13483150697592      1.14095182025400
  Br  1.68543953445278     -0.43282003607907     -1.24336683539521
  H   -2.49511687301339     -0.34084369390407      1.83245251055744
  H   -1.37655394583237      0.13553693235768      1.42560840959796
  H   -0.76944324654404     -0.78734516770349     -0.66848558920336
  H   -0.40918203852206      0.97441692564810     -0.81456186429016
  H   0.33292177452251      1.04863042965651      1.51018777348798
  N   0.26369539841466     -1.04642155015057      1.87981561143356
  H   0.88219955716959     -1.61745686287149      1.31498274014677
  H   -0.59165297133097     -1.57179990492690      2.07253384202790
