14
Coordinates from ORCA-job run
  C   0.52482324295096     -0.08709916471039      0.03166537409242
  H   1.89265306577301      1.52886313592190     -0.29322558651309
  F   -1.23023890863560      0.35397391591532      0.17710338092004
  F   2.25506010935147     -0.56692458399177     -0.31113657936350
  C   0.83699252216679      1.37726587329057     -0.07396080670669
  H   0.26363996605319     -0.62981772231706     -0.85542513759100
  H   0.52639578446576      1.90627953544259      0.82291535206814
  C   0.60087152548109     -0.74688445383786      1.38441866756629
  H   1.42881775860091     -0.31675040036985      1.95178492293748
  H   -0.33654241702198     -0.62055123769672      1.92163032125379
  H   0.82897080276280     -1.80434874987017      1.25346191244798
  N   0.09335026181654      2.03928930245655     -1.18190847004186
  O   -0.36283726045038      3.16271661032782     -0.96634323865884
  O   0.05345354668543      1.47617793943908     -2.27055011241121
