15
Coordinates from ORCA-job run
  C   -0.19217360074071      0.00281054359508     -0.33882524989028
  C   -0.08253775799229      0.08840677497034      1.15219046170865
  Cl  1.48214896250692     -0.33057779247760     -1.14251067129124
  F   -2.48903399269301     -0.49561457162198      1.57856423489793
  H   -1.48276443377344     -0.01562170313926      1.47635113947514
  N   -1.05020698388938     -1.06369259008625     -0.83211511385942
  H   -1.87922767472536     -1.02392708347328     -0.23551393186977
  H   -0.58107763582115     -1.93697634891061     -0.61613475748530
  C   -0.63422957374561      1.27784342954946     -0.91679863787463
  N   -1.01309119469790      2.29498304228860     -1.36695175712231
  N   0.38510634192297     -1.11853228214123      1.80585598459030
  H   1.15227774698576     -1.55211403476045      1.30063236267438
  H   -0.38614037487514     -1.76636129665639      1.89428687342886
  C   0.60674703579964      1.26261483114722      1.61334535550355
  N   1.14730313573867      2.23365908171637      2.00781370711416
