12
Coordinates from ORCA-job run
  C   -0.13546332653248     -0.08418823317708     -0.38756191187073
  C   -0.24017015644650      0.03042775768709      1.12287754615019
  Br  1.78554524023662     -0.24233407149533     -0.93531888372856
  Cl  -3.47976885883983      0.39518483191900      1.78245608230396
  H   -1.32257720061141      0.12026856014990      1.36202928982323
  H   -0.41510142443086      0.86773966983837     -0.84049771872929
  H   0.25717422690231      0.93345476641090      1.48307141750759
  N   -0.91131150256265     -1.17168569580018     -0.91420846209521
  H   -1.40873501931735     -1.65238608633902     -0.17573279634286
  H   -0.36501506043548     -1.82579720929130     -1.45109909675780
  C   0.30997066218787     -1.13893262055711      1.79847913619031
  N   0.74498241984975     -2.09042166934520      2.33116539754916
