15
Coordinates from ORCA-job run
  C   0.74722397476974     -0.28049137944823      0.29669774829809
  H   1.89059213784565      1.50563705302698      0.58165278631862
  Br  -1.83871477246423      1.06625704570261     -2.41362036645544
  H   3.05070379948989     -0.13215383959893     -0.38262836596418
  C   0.89788036476772      1.20958356587229      0.26482480045295
  H   0.68441185827266      1.60571544858189     -0.72770139779001
  N   -0.17642532416395     -0.79431072107002     -0.46232758408273
  H   -0.73544698966306     -0.20396567745765     -1.12736246898406
  H   -0.33273053557421     -1.79061823695351     -0.47433662668958
  N   1.33685794471335     -0.96477859514017      1.31631545906492
  H   2.33369434910349     -0.73482134353136      1.22860099534713
  H   1.20171201687198     -1.96591768020418      1.26279429473065
  N   -0.09781468770162      1.84910021707193      1.20663755707255
  O   -0.98053552301873      1.16233848753549      1.71280563393615
  O   0.07832138675133      3.04640565561285      1.41210753474496
