15
Coordinates from ORCA-job run
  C   -0.21353668438159      0.03641458403633     -0.19878231784564
  C   -0.15075585740639      0.11258521917356      1.32841874594696
  Br  1.71600732830058      0.00626573749388     -0.90491054844514
  H   -2.44894360188430     -0.72958620872862      0.29996219846242
  H   -1.15923842249857      0.39613319421141      1.63571838205432
  H   -0.65891227436223     -0.91180610171204     -0.48483775469625
  C   -0.89484125531150      1.12331135281695     -0.88265327376123
  N   -1.32134691344576      2.01316618959401     -1.52398946157039
  C   0.22786463231313     -1.21279542386050      1.94182194040138
  H   1.17906765316045     -1.57659209850774      1.55214966415240
  H   0.30340312012699     -1.12973674032402      3.02625755381762
  H   -0.57911822257621     -1.90280036051819      1.68507457533140
  N   0.74622791789446      1.22835561829242      1.77355369273058
  O   0.48309449369339      2.34987281569658      1.34175862677259
  O   1.65222808637757      0.98275222233595      2.57163797664901
