20
Coordinates from ORCA-job run
  C   -0.09946165868509     -0.02131611287242     -0.33969495179826
  C   -0.14510023172359     -0.02999802536470      1.19723021969412
  Cl  1.70482343031163     -0.09616623895024     -0.85431412968918
  H   -3.10709886618051      0.85656792815498      0.24547258981573
  H   -1.23426764488855     -0.02236830038749      1.36407595090488
  C   -0.79082405432739     -1.23912330260400     -0.92077878568036
  H   -0.37492434259693     -2.17948706147298     -0.55635152433398
  H   -1.84659751546322     -1.15166698579219     -0.63678432507462
  H   -0.71293372403072     -1.20172880950463     -2.00790130036924
  C   0.39674711766873      1.24880535519677      1.82920804574872
  H   0.31679400320536      1.17964673122825      2.91871647085653
  H   1.44954509637177      1.40196163581552      1.57177126616906
  H   -0.18281808918849      2.12025302561384      1.52095209017937
  C   0.49382674622762     -1.27488204576121      1.84158452122068
  H   0.97096514557872     -1.92430632327199      1.10704217079640
  H   1.27199826017429     -0.99209793372474      2.55740971329361
  H   -0.25221544643929     -1.86741643657851      2.37928827982840
  N   -0.68893373096285      1.12658912903920     -0.95054044018900
  H   -0.26903687041085      1.96618287965439     -0.56522849410281
  H   -1.69493762464064      1.11298089158215     -0.61408736727004
