13
Coordinates from ORCA-job run
  C   -0.12054732445309      0.13392076863083     -0.32334420625144
  C   -0.13068681477311      0.10412444434492      1.14344937551189
  F   1.12367141919662     -0.18426788033255     -0.98565253930637
  H   -2.45539013133926     -0.66833313539365      1.40083663278324
  H   -1.45438243387204     -0.14589120127101      1.34688265135407
  H   -0.82356811455809     -0.62213431289366     -0.70915710719629
  H   0.23674486071647      1.02549559502795      1.60261243645529
  C   0.44906716380336     -1.16663206851559      1.72460464410322
  H   1.46406075887801     -1.40489689455253      1.38617338965109
  H   0.45832745691154     -1.10758410584005      2.81873556644682
  H   -0.20915979848557     -2.00816183010028      1.46192507501360
  C   -0.51481015140654      1.45483643695659     -0.83739725318121
  N   -0.83465689061830      2.50854418393901     -1.24643866538391
