18
Coordinates from ORCA-job run
  C   -0.12814594663443      0.04291680783325     -0.26163510475129
  C   -0.16693822398226      0.02118197266578      1.21926971211178
  Cl  1.65643761319519     -0.06523284150001     -0.98776958279022
  H   -2.42601838289005      0.87982642038220      1.74949740895227
  H   -1.37696567424053      0.20934435186019      1.45733575147944
  N   -0.81463196167299     -1.20270322119968     -0.79004891299017
  O   -1.97148959675588     -1.06036546921045     -1.19188755231538
  O   -0.23480205271956     -2.28355441217496     -0.71163991354956
  C   -0.77830861011824      1.26062914120835     -0.85474192888030
  H   -0.94260582951799      1.14464630881148     -1.92623180527179
  H   -1.73154150022023      1.40636213442741     -0.32711320646668
  H   -0.14661803758913      2.12999676320714     -0.68275279899557
  N   0.29768469759794     -1.17222448621894      1.88725512316948
  H   1.19315001406105     -1.46098508444172      1.50315306143659
  H   -0.35425843220893     -1.93054255873314      1.72967071489257
  N   0.37561281153337      1.22740482294018      1.79758936554271
  H   1.03826204067072      1.68643331230497      1.18502236826718
  H   -0.41549292850805      1.84859603783793      1.98220730015893
