13
Coordinates from ORCA-job run
  C   -0.19582246521322     -0.02358290495717     -0.44772568714536
  C   -0.29634782348669     -0.01094166944152      1.03692445326664
  Cl  1.59635781962074     -0.00740185629186     -1.07574021539941
  H   -2.33146505503551      0.46380555103091      2.40390317271842
  H   -1.43216922447571     -0.01015086139154      1.42583964607180
  H   0.15900220844408     -0.92780683735963      1.43331627586526
  C   -0.76603983964012     -1.24653243099987     -1.01483444116609
  N   -1.22732734623885     -2.24487268664661     -1.43007396613453
  N   0.17325522864972      1.23806070483236      1.58211864238551
  H   1.06837741193878      1.13335060596452      2.03987856172845
  H   -0.54068134262533      1.49109294953032      2.27749325342039
  C   -0.81346580948223      1.15529776316488     -1.05439846795565
  N   -1.34193376245565      2.05596167256519     -1.59317122765542
