17
Coordinates from ORCA-job run
  C   0.87081805549705     -0.04260286331082      0.01917593659424
  H   1.63266293703667      1.72817135040882     -0.81273041288144
  F   -0.56108798339625     -0.53490526837664     -1.13964223046935
  F   2.49000243256654      0.06904232016368      0.85319618239280
  C   0.78772426404638      1.47561339114021     -0.15177711165164
  H   1.39298580940575     -0.61865281061928     -0.71592261405880
  C   0.15486715777259     -0.69922991260453      1.16671806761265
  H   0.66810956167693     -0.49650523890480      2.10485878329808
  H   -0.86872030921481     -0.32987031647943      1.21677039197181
  H   0.11111350784736     -1.77467958297773      0.99126775414575
  N   0.94984795539240      2.09888062410269      1.17375204757401
  H   1.10070669315180      3.09278391669442      1.03436161855649
  H   1.80978220112400      1.68817775591455      1.52779444055891
  C   -0.49198361017794      2.01120055255915     -0.77421567859111
  H   -0.66062875050600      1.56446851547258     -1.74876046353841
  H   -1.34368031272739      1.76446046644200     -0.13972068985580
  H   -0.41967960949507      3.10582710037510     -0.85471602165821
