15
Coordinates from ORCA-job run
  C   -0.01104761667582      0.09652446838484     -0.31247696955922
  C   -0.07705432814164      0.06026503820997      1.15448289828706
  F   1.34657688629651      0.42138732201320     -0.86636204449590
  H   -3.39186305978023     -0.14063596669777      2.22227071684032
  H   -2.67959856583077     -0.13561437271756      1.99626913812403
  H   -0.20711693218407     -0.87497233474237     -0.77324909473899
  N   -0.88091522970019      1.10477392670769     -0.86342423157864
  H   -0.46913542181368      1.42781707854871     -1.73232864107778
  H   -0.88330136562495      1.87984433540756     -0.21080847637222
  N   0.69683011133970      1.11142628763107      1.78227627965065
  H   0.12178965051232      1.86906142347761      2.11259773915992
  H   1.44607917029955      1.45585578866505      1.18854312941090
  N   0.53892813766360     -1.23015788481874      1.61686023774442
  O   -0.11054410704348     -1.96127267162390      2.37623628639876
  O   1.68909267068312     -1.53267243844535      1.25777303220668
