11
Coordinates from ORCA-job run
  C   0.66740168669777     -0.05797867156231      0.01984362435964
  H   1.74054867543569      1.80152679064376      0.08209774468949
  F   -1.11085349518214     -0.02208362527941      0.05402162700500
  F   2.41137900771372     -0.21274465294425     -0.12810301529948
  C   0.70667269983168      1.46142292635462      0.05099302415274
  H   0.58266315117668     -0.57961048916063     -0.91548562987522
  H   0.23219806744196      1.81746689650462     -0.86513174907926
  C   0.69073779786424     -0.81859927065702      1.25435616414136
  N   0.71938348452645     -1.43629173000856      2.25239775194785
  C   -0.02544062544108      2.04448214885095      1.17526674501947
  N   -0.53321045006498      2.60312967725825      2.07362371293840
