16
Coordinates from ORCA-job run
  C   0.06732189848835      0.03862889767753     -0.53222980526388
  C   -0.19877719686997      0.00641510342090      0.97370804884160
  Cl  1.72209857345981      0.62887486230091     -0.92354517556549
  H   -1.96843966004907      1.44733962229657      2.94847443670472
  H   -1.28109177948423     -0.12176198614076      1.13861502042667
  H   0.01112394908887     -0.96698490977936     -0.95655981364865
  C   -0.93623546958495      0.97411917314716     -1.17874658363584
  H   -0.73402238469142      1.09342630227208     -2.24512592637567
  H   -1.94734190721839      0.57806537694451     -1.04735099462527
  H   -0.88104439844729      1.94178395036863     -0.67922964987202
  N   0.15631577803239      1.17421421123022      1.66188494333489
  H   1.10689723251693      1.17813480366126      2.00613357391593
  H   -0.62987113624000      1.37465211024365      2.37969237810266
  N   0.39498808426130     -1.28233194596230      1.55978245391867
  O   -0.21352200615414     -1.81786951176203      2.48409393521559
  O   1.47589042289180     -1.68437605991897      1.11637315852610
