14
Coordinates from ORCA-job run
  C   0.50307024386484     -0.06462731645394      0.04875486275609
  H   1.68825453104939      1.65748848587165      0.17589959479898
  Br  -1.72566465937519     -0.29897017478640     -0.08976421875735
  H   2.58879917807777     -0.23428722383394     -0.33654381411614
  C   0.62289700107438      1.45462607687662      0.07173870418966
  H   0.73475241826710     -0.52466256406435     -0.89873186843906
  N   0.73310050870060     -0.71116832330809      1.31807778710319
  H   1.70793907863078     -0.98378101002577      1.28001853978610
  H   0.14677975119141     -1.53556636298395      1.37320696217645
  C   -0.04182242767585      2.03165990229037      1.26208957213350
  N   -0.51779454677993      2.64483253324120      2.14521163777611
  N   0.17360058510437      2.04288393809691     -1.18479787517276
  H   0.34794126562233      3.04069024845117     -1.16172440375492
  H   -0.82655292775202      1.89663179062852     -1.26384548047983
