18
Coordinates from ORCA-job run
  C   -0.14825968425376      0.06879086077029     -0.29212979746673
  C   -0.11315809770077      0.02140864701226      1.17413520836984
  F   1.16973312588041      0.05092263185265     -0.92424460860280
  H   -2.43184570479686     -0.72383250481985      1.56806774819102
  H   -1.47866322668998     -0.25225973643943      1.45040638580187
  N   -0.85888337664104     -1.02968017476254     -0.92723999387740
  H   -1.68038542174355     -1.19891307517523     -0.33689444666189
  H   -0.26006866289115     -1.84206722442809     -0.82610796231979
  C   -0.74507480715191      1.34090328838298     -0.77260266520011
  N   -1.21865405844927      2.35129022895045     -1.14034412927478
  C   0.46268701991969     -1.27286850884204      1.70688821753624
  H   1.46084652688106     -1.51649491729289      1.31317780551534
  H   0.54323931936354     -1.20881868684809      2.79838139233063
  H   -0.21250186952605     -2.11502382124660      1.50303923835643
  C   0.43602382140198      1.24971645157234      1.86312331259964
  H   -0.03132432158257      2.16842954050878      1.49336362033335
  H   0.22495007389732      1.19522946317179      2.93934001842434
  H   1.52720934408291      1.36813753763322      1.75170065594479
