16
Coordinates from ORCA-job run
  C   -0.14290200240009      0.00627977469515     -0.38988918758101
  C   -0.11740523015741     -0.07218933488254      1.12589263598478
  Br  1.75624050747610      0.15597964526010     -1.15764154884196
  H   -2.57351971412132      0.72998385183480      1.18107896243588
  H   -1.28466362289087     -0.00267332405680      1.32672260242904
  N   -0.92053237460396      1.10059038831508     -0.88760882315358
  H   -0.42989230508685      1.96013702029243     -0.65966233172446
  H   -1.77602148881346      1.08633663071209     -0.26810117850040
  C   0.41489192967996      1.18166058139902      1.80591114380895
  H   -0.32442486428699      1.97795178228171      1.68208648516623
  H   0.52105918127085      0.99861721032702      2.87760849574639
  H   1.38353770674152      1.49180059927068      1.40464930466700
  C   0.48143639597444     -1.28484941667703      1.63524755519187
  N   0.96720661051307     -2.25731060883601      2.08853676591148
  C   -0.65110547381143     -1.24826044979019     -0.95899892975364
  N   -1.07622525548356     -2.24828435014551     -1.40764195178653
