13
Coordinates from ORCA-job run
  C   0.49021410932255      0.01813286580225     -0.10280367969960
  H   1.83485894657460      1.71314851095804      0.00982757831505
  Br  -1.67797480419171     -0.00694155387397     -0.76378827042950
  H   2.01233462889744     -0.47549786621480      0.71650755801483
  C   0.76025494526162      1.51790563604781      0.05066060588599
  H   0.90807398320443     -0.43622898853374     -0.99912124211341
  H   0.30940219765640      2.01376218925921     -0.81201359028145
  C   0.71525691310777     -0.81503389412089      1.08672239352079
  N   0.34750154806961     -1.47655597685775      2.01680699137675
  C   0.18048310140400      2.07081887295434      1.34632282524436
  H   0.65714133575128      1.60177481601558      2.20994716993292
  H   0.33033930300865      3.15387474841642      1.40900023967927
  H   -0.88790620806664      1.85835064014749      1.40000142055398
