13
Coordinates from ORCA-job run
  C   0.39436312068332     -0.10688745436969     -0.09513932645647
  H   1.58756744985944      1.61572201347226     -0.50404840520882
  F   -1.20207522495344     -0.13818697896996     -0.51618212416528
  H   2.10545922215084     -0.11168867551634      0.62821684594600
  C   0.58147627970686      1.41945754967123     -0.14053697650249
  H   0.21324598295429     -0.56815498684664      0.86026531481320
  N   0.87071608446479     -0.80808746642732     -1.25780949041000
  H   0.11311323499049     -1.40372579343071     -1.56606435813629
  H   1.68443508143923     -1.34135108071173     -0.99898372177438
  C   0.46099067711127      1.99707868989736      1.20148110036899
  N   0.32593377527045      2.49578581642352      2.25570915915242
  C   -0.36038843936952      2.10937505470585     -1.05094351490085
  N   -1.00212724430801      2.76476331210217     -1.78430450272601
