12
Coordinates from ORCA-job run
  C   -0.33879183255217     -0.05766102919425     -0.25649613156830
  C   -0.14014998637243      0.00321565640074      1.09402958105361
  Br  2.11347180485600      0.06273156507367     -1.75420377331642
  Br  -3.10317905994013      0.09809814556930      2.11428462664148
  H   -1.59761850640547      0.06895697315259      1.43549998633672
  H   -0.45327589967087      0.87334175944972     -0.80074526360673
  H   0.21004117200740      0.92899198728805      1.53808933541677
  H   0.08432212970768     -0.90991233732444      1.63917337328810
  C   -0.80179709508742     -1.29998697517166     -0.93979036439864
  H   -0.32166859166030     -2.18167512261964     -0.51273417063194
  H   -1.88853163735107     -1.39343542916630     -0.79972643576487
  H   -0.57352249753120     -1.25952519345779     -2.00174076344977
