16
Coordinates from ORCA-job run
  C   0.75211086339379      0.06682422525907      0.08801168286727
  H   1.75778458833356      1.92245293828336     -0.00670887557798
  F   -1.23869684950206      0.00238290469424      0.51395795876152
  Cl  2.80281966029803     -0.30484202334899     -0.87821770329994
  C   0.71974738886530      1.58617282439250     -0.01104433719638
  H   0.38915157783159     -0.54964648155348     -0.71492455570707
  N   1.05491684025101     -0.47592437894152      1.36465818173064
  H   1.45285210593373     -1.39655146649994      1.22856381200366
  H   0.12279045303312     -0.57699509584697      1.76134487796054
  N   0.04859959647796      2.21648288651692      1.12655860018829
  H   0.59440300356540      1.98388003874856      1.95084943926115
  H   -0.81813686007841      1.68348227138611      1.20353570242165
  C   0.04869714867541      1.99409893339156     -1.30945204490585
  H   0.57442901737263      1.56001745178685     -2.16399779364449
  H   -0.97800172062076      1.62521493972286     -1.29083490221716
  H   0.04518318616972      3.08281003200890     -1.40249004264582
