13
Coordinates from ORCA-job run
  C   -0.17690641309598     -0.05297085445836     -0.47862779117104
  C   -0.01698009445023      0.02314149116725      1.04715337754594
  F   0.96265489106769      0.50676356887541     -1.06179720794158
  Cl  -2.11319851990415      1.80273265723024      2.64812317544348
  H   -0.85703947741358      0.56999584933247      1.54212166277604
  H   0.91062885339511      0.55348500808089      1.25159013850382
  C   -0.28618192342115     -1.41416747520160     -1.04251841587942
  N   -0.30215207864809     -2.44514807416089     -1.60509354638078
  C   -1.32650719282513      0.72830082585518     -0.97115941946891
  N   -2.19835303481213      1.34210256560468     -1.46324478290654
  N   0.07202095371104     -1.30273095089311      1.69327615256552
  O   -0.85284853647600     -2.08563070601000      1.47817398885294
  O   1.02464257287256     -1.51123390542212      2.44342266806052
