10
Coordinates from ORCA-job run
  C   -0.16094869160003      0.22295144479690     -0.37716657065278
  C   0.16553079505560     -0.09055393919210      1.06964566297423
  Br  0.38723379168129     -1.25104811753960     -1.55600279988001
  H   -2.25956483201219      0.56306362941751      1.30517079178627
  H   -0.39096941832610     -0.97801935973110      1.37344436356821
  H   -1.24508441252328      0.34177894674060     -0.44184060003786
  H   1.24570050699108     -0.24417832025326      1.19558266331178
  C   -0.26845756845834      1.04115470417770      1.91822113798656
  N   -0.01051189967047      1.95317487404557      2.63383686237214
  H   0.37053172886243      1.10477613753777     -0.73525151142855
