18
Coordinates from ORCA-job run
  C   -0.14167515377525      0.01343831068122     -0.28536223001488
  C   -0.17895200337324     -0.08112576953093      1.17912805182818
  F   1.17885995417023     -0.01273534465389     -0.86703003163006
  H   -2.45779990508786      0.42183264941836      1.82483449630428
  H   -1.53805516942262      0.01259787925096      1.49486370204291
  C   -0.85171787137094      1.21477435383180     -0.85271847607846
  H   -0.98261459376646      1.11447901918792     -1.93233819308285
  H   -1.82275411378056      1.32017582326673     -0.36208663730271
  H   -0.25156857594735      2.10180047020155     -0.65089212960117
  N   0.20222620477870      1.13818897962309      1.84784266617086
  H   -0.65168542241018      1.65995336820346      2.06942509108007
  H   0.82464601750631      1.72620424569032      1.30733210651174
  N   0.40867646667937     -1.27743110934266      1.74835538735853
  H   1.18751124677156     -1.61132183344615      1.19054793743315
  H   -0.28176298565999     -2.01917653823540      1.78129935661272
  N   -0.77833075856087     -1.24439374391876     -0.86315543067556
  O   -1.98734476512872     -1.20578211079282     -1.09860612541816
  O   -0.07509857162213     -2.24502864943479     -1.00387954153860
