18
Coordinates from ORCA-job run
  C   0.52648124482577      0.05677531601061     -0.20926255553970
  H   1.86536582655740      1.58667686867996     -0.60089174776610
  Cl  -1.55895898412016     -2.88161786198083     -0.21430716896414
  Cl  3.40769200447306     -0.00314353275850      1.01454246503154
  C   0.88541979930854      1.50802484825627     -0.12217951985463
  N   0.68343337667469     -0.59033781798185     -1.44798987125574
  H   -0.23999110407600     -0.73653624733717     -1.85233013047277
  H   1.03167702987453     -1.52725089445376     -1.26311337340498
  N   0.00695219337203     -0.53099228506476      0.80475300320446
  H   -0.02801135414507      0.02095046239806      1.65886501558868
  H   -0.44389714467348     -1.47104873989554      0.68125617798723
  N   0.90056966430125      1.89975502539978      1.28004717943692
  H   0.86908574896236      2.90900915656968      1.35309170919372
  H   1.80241147049342      1.57169116381075      1.63582501650481
  C   -0.15989543518835      2.29593834237872     -0.91117861537763
  H   -0.20915117909968      1.95092068673035     -1.94563505010890
  H   -1.14448076255357      2.19432670598786     -0.44681563677610
  H   0.11051760501326      3.35556880325040     -0.92350689742666
