15
Coordinates from ORCA-job run
  C   0.64001197669163     -0.04925830886482      0.02924005135322
  H   1.35291456403973      1.87562307818662     -0.46407037667328
  Cl  -1.68152351760650     -0.46153467876563     -0.20247419127012
  Br  3.05780679282907      0.12775029687252      0.55266969166873
  C   0.44056011135714      1.46027002755442     -0.03550861474341
  H   -0.37061851326140      1.63340779313124     -0.74263123433999
  C   0.90082442088542     -0.73785346714502     -1.20139009648591
  N   1.11635763095572     -1.20948624939878     -2.25960189850483
  N   0.53876971920083     -0.94631832490198      1.23662347561959
  O   0.29874297578953     -0.42124449006138      2.31247979076257
  O   0.71333969790482     -2.13831936333756      1.03558952925533
  C   0.12749771767766      2.18081915232081      1.26748893158564
  H   -0.79963059081159      1.81666571253674      1.70610795234342
  H   0.93265318095795      2.05955077455906      1.99038508108341
  H   0.01544383338997      3.24638804731376      1.04217190834566
