17
Coordinates from ORCA-job run
  C   -0.28974898003018     -0.02390772918372     -0.32090527658403
  C   -0.16087555275200     -0.00518290489311      1.11817544885946
  Br  1.86845402340969     -0.02234424263482     -1.27916884442036
  H   -2.63501198890476      0.48645884620327      1.17216729761247
  H   -1.38671914315555      0.09079396621121      1.31353343724366
  H   0.21267530643329     -0.94665843791369      1.52901152680320
  C   -0.88613753978719     -1.28790727990150     -0.85954474509010
  H   -0.35587357502640     -2.17095695910612     -0.50093976380209
  H   -1.92505874508273     -1.30774371456637     -0.48628065838628
  H   -0.89370801939812     -1.27302531270448     -1.94854543520117
  C   0.44251581544920      1.21720210348778      1.77571790116131
  H   -0.21473202344878      2.08563357988759      1.66258538308603
  H   0.56652543395801      1.05086496901109      2.84984280274207
  H   1.42100897354881      1.45072690737604      1.34287847855945
  N   -0.92765824721423      1.10152081694831     -0.89358934144778
  H   -1.86728043707281      1.07192273051099     -0.42242330730451
  H   -0.47868530092624      1.94362266126756     -0.54802490383133
