13
Coordinates from ORCA-job run
  C   0.58721192590805     -0.07622591620627      0.02722338979752
  H   1.76399536250957      1.73803499368557      0.17847272298164
  F   -1.38704473873054      0.30849603985919      0.32437226605586
  Cl  2.54001856744921     -0.59668872293822     -0.75100260672180
  C   0.72604599921621      1.43101828891458      0.03009242833760
  H   0.10161733431768     -0.55606103316448     -0.79839964672824
  H   0.09902346845115      1.80434206532230      0.83899297084137
  C   0.68919885255398     -0.77586276062738      1.35420912281499
  H   1.55842059005667     -0.41769535037483      1.91106396772724
  H   -0.23443369436433     -0.57121115217167      1.88992650654211
  H   0.80741427714603     -1.84984925558861      1.20816038009181
  C   0.23950493905379      2.02841740585487     -1.20934159249759
  N   -0.11520288356746      2.55400539743496     -2.19637990924252
