12
Coordinates from ORCA-job run
  C   -0.10235968317119     -0.10557200435852     -0.40821553273318
  C   -0.33039483179366      0.04256960688126      1.02111732134174
  Cl  1.76731416420900     -0.18694519238166     -0.95393556306176
  F   -2.55887320736545      0.55514498090252      2.00587877322120
  H   -1.61868742865492      0.15839848864832      1.35747584296684
  H   -0.42189113295638      0.78090801884876     -0.95414428004393
  H   0.04246274114618     -0.82631008355722      1.58218327150074
  C   -0.67729030693341     -1.31813410918339     -0.97884857820800
  N   -1.15246430226093     -2.29542188180456     -1.42609840461977
  N   0.13116612816684      1.34323037172590      1.49489609611807
  H   1.04352507454558      1.27732985225084      1.93051968182564
  H   -0.54702721493166      1.64065195202777      2.18627137169240
