15
Coordinates from ORCA-job run
  C   0.66063868412341      0.05427370243769     -0.17902819976046
  H   1.13172800932377      1.55320549633911     -1.61046092727190
  F   -0.84818830249054     -0.00269638748539     -1.08082340414594
  F   2.29952531578328     -0.16699573988170      0.55376779419355
  C   0.92274391104276      1.51178891905257     -0.54235870050261
  H   1.80652570721409      1.83087254168096      0.00321216171301
  N   1.12039518901771     -1.05044927671738     -1.10995986568236
  O   1.69492528260079     -0.73440319977217     -2.14366447729945
  O   0.87689809289077     -2.20200053743845     -0.76792967634036
  N   0.03053188719056     -0.28388183636656      1.04230474203336
  H   0.70668766047787     -0.81446982322920      1.57174683237082
  H   -0.77943498042562     -0.84262348714669      0.81766099651115
  N   -0.18802600942701      2.40541598260892     -0.22715463946888
  H   -0.37480663220728      2.27565672787651      0.76252197945205
  H   -0.98621381511455      1.98996691804175     -0.69453461580197
