11
Coordinates from ORCA-job run
  C   -0.08328953414037      0.00948886206128     -0.35985578874205
  C   -0.21081779925845     -0.02233351933569      1.08793710876002
  F   1.22754888342017     -0.01064657713522     -0.91978332235001
  H   -2.64281683805919      0.18824539373912      1.74792007241486
  H   -1.51973091955001      0.05057349238239      1.41647112905079
  H   -0.58903691625346      0.85157354478309     -0.83299026811201
  H   0.19959711277665      0.88631965597039      1.53612970522021
  H   0.23396573131362     -0.92171286181285      1.51763470664540
  N   -0.72900304548912     -1.21519807181416     -0.96402469708361
  O   -1.66352261143116     -1.03708369688260     -1.74772678658261
  O   -0.28138406332868     -2.31355622195574     -0.64238185922099
