18
Coordinates from ORCA-job run
  C   -0.14518525110122      0.01641042910960     -0.31606610141439
  C   -0.14605403471296      0.21085287300710      1.22891183304831
  Br  1.68094322907423     -0.11220319834320     -1.02829378245593
  F   -2.38854984985744     -1.58886928402634      1.66963959049189
  H   -1.20617455042863      0.42320919018431      1.43496151574720
  C   -0.95000086793601     -1.19193111014553     -0.73280841266766
  H   -0.33319065012016     -2.07676346516067     -0.57444929469423
  H   -1.81617618355236     -1.29829545542130     -0.05731299364996
  H   -1.21831138762883     -1.13073321676479     -1.78887881124821
  N   -0.76152948695960      1.28336025911540     -0.90171559047100
  O   -0.07768374273323      2.30366139932192     -0.97479494522463
  O   -1.96005572720727      1.23061796313718     -1.17365324905445
  N   0.12318703473352     -0.98543601860617      1.96735090174147
  H   0.89300784848737     -1.50045193613338      1.55601882168283
  H   -0.78870953100596     -1.50306932428414      1.94821008981788
  N   0.78789664125655      1.25607541490968      1.63074243671321
  H   0.80438195515651      1.21622336280714      2.64224685649343
  H   0.46686455453546      2.17095211729316      1.33878113514425
