17
Coordinates from ORCA-job run
  C   -0.32879669914130     -0.07663475618899     -0.19478147794060
  C   -0.29927315156868     -0.22408943228045      1.32233804457088
  F   1.00994255861816      0.12068923851527     -0.64880379199202
  F   -2.08514812547900      1.97600227324897      0.63235491619131
  H   -1.33039998407279     -0.47798259029612      1.59430245159070
  H   -0.88934854256080      0.84588217405102     -0.37288821040015
  C   -0.90925435586949     -1.27607690801281     -0.94174133134125
  H   -0.16140100067779     -1.67685198812084     -1.63036068658796
  H   -1.20955336245854     -2.08042901178080     -0.26423363784622
  H   -1.78849440300952     -0.98068164982387     -1.51854348523159
  N   -0.01188839564340      1.04221402409067      1.99246217772826
  H   -0.78952977243984      1.64373330866236      1.63069673779299
  H   0.84397775689532      1.39912740346856      1.57280984623721
  C   0.66009523134488     -1.31476046987723      1.78676584791384
  H   1.68086092722297     -1.05499600772319      1.49346108660833
  H   0.62532077685643     -1.38560335931761      2.87619246998447
  H   0.42755054198341     -2.29595224861496      1.35904904272174
