14
Coordinates from ORCA-job run
  C   0.13800368668825      0.00370119619912      0.00762426998254
  H   1.85145509405957      1.20078258931802     -0.13660781406208
  Cl  -1.62683709590043      0.14830105685354      0.11407230247010
  F   1.81229587736866      0.35003359946074      2.06651537568186
  C   0.77637337284186      1.39087946657676     -0.08009821836153
  H   0.41576212483701      1.83105195828149     -1.01976015197685
  N   0.49634616148633     -0.66176595943193     -1.34466344639283
  O   -0.36218065352628     -0.80787485016617     -2.20455768961119
  O   1.68401788810939     -0.94178317666320     -1.46642330200634
  C   0.59633740181756     -0.94953687315667      1.04477057036070
  N   0.53450167229618     -2.05896491288964      1.45450692006506
  N   0.38513056422755      2.21924833245420      1.04436647108920
  H   0.74888692994379      3.15084281253653      0.87906630230552
  H   0.91995697575051      1.77789476062722      1.80695841045587
