17
Coordinates from ORCA-job run
  C   0.46672759446282     -0.07942544983357      0.07052830928292
  H   1.69324711710255      1.54625251740068     -0.14241938212092
  Cl  -1.74518613110808     -0.16900031385321     -0.00341726120599
  F   2.44645634674962     -0.24194916201772     -0.21328205530880
  C   0.61994887210192      1.42310967048616      0.02251865603497
  H   0.51177887775233     -0.59875821992786     -0.86461032021987
  C   0.64746789686256     -0.79309741893138      1.38467948995520
  H   1.63417584716670     -0.54863574831292      1.77072219277612
  H   -0.13198931132077     -0.53376735944443      2.10077114061576
  H   0.60666195367358     -1.86782338850025      1.20608296169865
  C   0.15323698612350      2.17914062588171      1.24511345090985
  H   -0.91703367828048      2.04899210831630      1.39926217263364
  H   0.69268481672091      1.80057025122013      2.11580086562789
  H   0.37096930316170      3.24180526159205      1.13986781714047
  N   -0.00230208017420      1.97817455322188     -1.22990786972604
  O   -0.60670071664245      3.04869977861871     -1.15851217975479
  O   0.19773630564777      1.36597229408371     -2.27364798833906
