12
Coordinates from ORCA-job run
  C   -0.07627910992037      0.04815122036930     -0.37809460336276
  C   -0.09650833119935      0.18223828486074      1.15741928875153
  F   0.92848987766917      0.83283061768689     -0.95466538415032
  Cl  -2.89807349466161     -1.40448012666589      0.54819137587907
  H   -1.06162394894331      0.62023951021256      1.44136980861353
  H   0.12523853063525     -0.99247499610964     -0.62783305061802
  H   -1.03006136102206      0.35320647010317     -0.79973161433891
  C   0.96096454305449      1.09083873684945      1.62158577052343
  N   1.77632613986256      1.81563789934767      2.05371670047405
  N   0.10105924936360     -1.14157068187995      1.76244273965124
  H   -0.74977174207176     -1.64804871405158      1.50380360171173
  H   0.05777964723338     -1.03283822072277      2.77149536686541
