16
Coordinates from ORCA-job run
  C   0.32599446481033     -0.08686801569858     -0.04940783791914
  H   1.41686927785546      1.68910886758431     -0.46008223781608
  Br  -1.81898886513281     -0.42963263570042     -0.16445360648163
  H   2.11097260477992     -0.05191097997065      0.71048017348049
  C   0.43485500920719      1.43190508107058     -0.05683635285604
  H   -0.30194370100203      1.75459451351177     -0.79926033394618
  N   0.76850117188850     -0.68157413206450     -1.26675273046060
  H   0.51359042294328     -1.66293230038829     -1.21030990602674
  H   1.78297727367205     -0.64170158546056     -1.23840453368269
  N   0.63704324136698     -0.87867036396400      1.18166101162620
  O   0.25634354971249     -0.42713748222179      2.27818929071500
  O   0.81013179108536     -2.10398740402166      0.98575937701209
  C   0.21069230738629      2.17265371880592      1.25307326707176
  H   -0.74976799218566      1.90720065661927      1.69229024435161
  H   0.98503799721870      1.92516656295907      1.97680692757714
  H   0.23012144639392      3.25132549893953      1.05569724735481
