14
Coordinates from ORCA-job run
  C   -0.29705938792980      0.00499106913823     -0.24194664772873
  C   -0.05866761590692     -0.03917059076754      1.14387581224023
  Br  1.80729433557331      0.38231222554835     -1.47231216438500
  Cl  -2.71466322319007      0.17621293003399      2.37179553957798
  H   -1.36774494554233      0.01521520805072      1.49961116016417
  H   -0.69019576226681      0.93896344366564     -0.62594551033773
  C   -0.76717966709667     -1.18616900443127     -0.88668789132268
  N   -1.16653440045509     -2.19217679743000     -1.35390931727801
  N   0.49918106179381     -1.21240151551235      1.71820847305282
  H   0.09047788024641     -2.05324220847955      1.32797989347267
  H   0.32689123186269     -1.18294926737953      2.71570920441499
  N   0.46134731742568      1.13410503960680      1.78708625904807
  H   -0.22001182390260      1.88229266952290      1.73773435091715
  H   1.29033499938839      1.41023679843361      1.26123083816407
