17
Coordinates from ORCA-job run
  C   -0.35193038639628     -0.12007822433767     -0.23501955910690
  C   -0.04435237071648     -0.11640432754080      1.09481989188257
  F   1.57423629397400      0.88645015427954     -0.95194798741237
  Cl  -2.83098880670134      0.33434436723687      2.07757507364915
  H   -1.53707036534078      0.05191568680262      1.37540089338695
  H   -0.54182130365692      0.84545121416019     -0.68252097061806
  C   -0.53786612742780     -1.29948047078239     -1.12084792072833
  H   0.24337461394149     -1.18591261174714     -1.87838953621994
  H   -0.40332433353181     -2.25236096708620     -0.60794345559721
  H   -1.51143349121908     -1.29296240251467     -1.62241460506673
  N   0.57205835865268      1.08852238215331      1.58195978323814
  H   -0.11457821111505      1.76622394271963      1.89445323800938
  H   1.07218613434039      1.41678490286193      0.73828535998937
  C   0.30261578396262     -1.35202613935634      1.88188779107051
  H   1.37004140641626     -1.56423159563135      1.76215897492772
  H   0.11625075102744     -1.16132912081973      2.94166930190521
  H   -0.27606794620935     -2.22986679039781      1.58323372669057
