17
Coordinates from ORCA-job run
  C   -0.21237627549464     -0.03953932046610     -0.30991043523688
  C   -0.08714258371141      0.05454109755441      1.20705021993258
  F   1.12494400906216     -0.08649454067037     -0.81913323946340
  F   -2.97993856428739     -0.31612280274809      0.53152762562192
  H   -1.13099883711275      0.05925187133907      1.53899869775372
  H   0.37595847654732     -0.88162340403504      1.54882095256549
  N   -0.89521978905840     -1.22296578719501     -0.73708263380075
  H   -1.85860521419942     -1.05703908949767     -0.32464803599558
  H   -0.48956375309841     -2.00675841155096     -0.23011162809020
  C   -0.90810003001960      1.17897403886708     -0.91933682483571
  H   -0.22534594759189      1.66614366735080     -1.62013450332304
  H   -1.80857451660397      0.85106348923266     -1.43133414578112
  H   -1.22234983221974      1.89041058774052     -0.15643728901465
  C   0.72833656926211      1.23406423379638      1.72524597378274
  H   0.28165421790817      2.18859555652964      1.43523840227771
  H   0.78854877823167      1.22091705604540      2.81876133430840
  H   1.74598329238619      1.20499175770731      1.32744552929869
