16
Coordinates from ORCA-job run
  C   0.41843662884430      0.15981999246143     -0.17580255416905
  H   1.79944550353447      1.66721216343744     -0.43875085356915
  Br  -1.53492414979893     -3.20218664203247     -0.27413835025469
  F   2.41211852560860      0.04626802436176      1.08202273112980
  C   0.77098852471288      1.61347360715305     -0.08345310394494
  H   0.29074777691396     -0.23361516050707     -1.18305980869329
  N   -0.02317224999843     -0.58558832284450      0.76869161253890
  H   0.33696191722756     -0.36751486271385      1.69019329297943
  H   -0.39519362199959     -1.53318087577522      0.54055994960400
  C   0.71645139047271      2.17798513983348      1.32758489634743
  H   -0.27947761871308      2.04339902484892      1.76707648034204
  H   1.47951592228715      1.64267123562703      1.89363004514505
  H   0.93289976277248      3.25062199491124      1.30677519705311
  N   -0.10720370922658      2.27790380897016     -1.06580070739779
  H   0.24912075153989      3.21026079543583     -1.23804972089423
  H   -1.03291535417741      2.38501007683279     -0.66369910621654
