16
Coordinates from ORCA-job run
  C   0.49418081130093      0.01049685982611     -0.09345503071972
  H   1.60779602609453      1.76097744725111     -0.38949903309845
  Br  -2.00699275050613     -0.23676806609082     -0.31334001027872
  Br  2.78677338673994     -0.33488155133952      0.81178375363959
  C   0.57046230626498      1.52553777256224     -0.14814040024710
  H   0.24575907760803     -0.57490087331536      0.76838736811503
  N   0.80106222932914     -0.79251586378783     -1.29443685634463
  O   1.26016948404599     -0.20067629811049     -2.26772646119589
  O   0.60001411886789     -2.00122392665150     -1.21808882754038
  C   0.25213019326465      2.05946185390930      1.25012623532415
  H   -0.78349438440037      1.82381873992371      1.50591819537664
  H   0.92109262249660      1.63090166825442      1.99918031119395
  H   0.37398813290721      3.14739304772862      1.25744869166893
  N   -0.22283162157634      2.12253069225570     -1.22024324337416
  H   -0.00606446389125      3.11272999866184     -1.24310287668224
  H   -1.20705516854576      2.00441849892242     -1.01181181583696
