17
Coordinates from ORCA-job run
  C   -0.12988011888183      0.04982597225348     -0.29333994290957
  C   -0.16854000881415     -0.06246919702469      1.22795311592147
  F   1.24423860037034      0.08071011821326     -0.67308830189939
  F   -3.02405657125924      0.35268160710322      0.29045027654351
  H   -1.24178458088100     -0.06077592803525      1.44399908678156
  H   0.24347313678866      0.87647755243314      1.61944368553515
  C   -0.79885283122436     -1.12387437616305     -0.97638889379680
  H   -0.37767664920073     -2.08131370240711     -0.65968586213866
  H   -1.85625483920617     -1.04297559098849     -0.70666560108214
  H   -0.67066848593178     -1.01347691013168     -2.05536651719825
  N   -0.76471428809621      1.24646380905496     -0.76760363923574
  H   -0.40629889986088      2.02056443703159     -0.21300061140410
  H   -1.76178322750149      1.09527593794807     -0.46116702600904
  C   0.59259024721656     -1.25541340065021      1.82616697733722
  H   0.96311294552600     -1.92512136591629      1.04776234875948
  H   1.46698324818694     -0.92923633336602      2.39671016607257
  H   -0.03908767723067     -1.84516262935496      2.49647073872275
