13
Coordinates from ORCA-job run
  C   -0.30582966306068      0.03205303699964     -0.24597564496021
  C   -0.23034795796436     -0.15569269488031      1.16502220144723
  Br  1.79654736351962      0.15063907877078     -1.12725686918814
  F   -2.76841616413605      0.13945770561926      1.21451508057933
  H   -1.60693080476234     -0.09969223438391      1.29770998385208
  H   -0.60462243328360     -0.86543302872274     -0.78388772636862
  H   0.13008273222575      0.75158918790395      1.67949678263672
  N   0.38582108532928     -1.41196105641261      1.55314981847411
  H   0.24777403656396     -1.56523602221524      2.54383898434823
  H   1.38699631091989     -1.35507757160759      1.37716656227981
  N   -0.94675291895831      1.20804367882395     -0.75296006753119
  H   -0.54952380035171      2.00476257013575     -0.26499034374178
  H   -1.90315778604144      1.10638734996908     -0.40505876182757
