14
Coordinates from ORCA-job run
  C   0.43688789971031     -0.03292975717338     -0.06419040415457
  H   1.46592691935969      1.81063398093078     -0.44454911526802
  F   -1.27871064776360     -0.14656083265792     -0.30665804292255
  H   2.22823084599204     -0.11088143071702      0.51997847247820
  C   0.49182851220212      1.47678614089683     -0.09420353950349
  H   0.33424275854470     -0.54162445596576      0.87913025196524
  H   -0.26624986336096      1.79474401771724     -0.81677631851867
  N   0.75992017889683     -0.74419664455308     -1.28400333921605
  H   -0.01557180487920     -1.37818765155148     -1.43277463989945
  H   1.61166269718772     -1.25415114090394     -1.10964223458840
  C   0.19001836887178      2.04868083011986      1.28130271306706
  H   -0.80084749259812      1.72030379100464      1.60264537416316
  H   0.93756529684948      1.68232255899084      1.99147047620768
  H   0.21363633098722      3.14418059386238      1.28805034618987
