14
Coordinates from ORCA-job run
  C   0.57245443987064     -0.05210199459463      0.03366750668910
  H   1.62395944726577      1.78000430643396     -0.16027371726587
  Cl  -1.52882911418396     -0.35482758427003     -0.36862906133390
  H   2.66616804959569     -0.18902370934413     -0.02358513768288
  C   0.59747694934368      1.46727311778757      0.01299999744285
  H   0.87471259706967     -0.56409396336183     -0.86429529008336
  H   -0.01094851978730      1.80360253924781     -0.83253709972872
  N   0.59690023870911     -0.72446530241740      1.31346448521422
  H   1.57761719444820     -0.92396633887442      1.45962534704430
  H   0.09160872138606     -1.59740402558291      1.21165827665103
  C   0.07727834255013      2.09005775084521      1.30141807034512
  H   -0.93379159543756      1.74356551419416      1.51808915443087
  H   0.71152414145564      1.81361292123535      2.14454688679098
  H   0.06524910771422      3.18246676870129      1.21369058148624
