19
Coordinates from ORCA-job run
  C   -0.26075671250597      0.06579490098742     -0.30355222960116
  C   -0.20539390208972      0.19279493748930      1.23944584905955
  Cl  1.45955810592701     -0.20788221874305     -0.90675998908002
  H   -2.34538477514450     -2.21906976964243      1.60029376174448
  H   -1.25918890605703      0.36699213308486      1.50560690617700
  N   -1.03738334110871     -1.05364091557352     -0.76998913065002
  H   -2.00023307852592     -0.88271330231535     -0.47877363212448
  H   -0.81790361706644     -1.85928897499800     -0.18724913537321
  C   -0.76326866334385      1.32496482237819     -0.98891894761895
  H   -0.86552369047936      1.12714867384160     -2.05700379883695
  H   -1.74726397584187      1.58035029216098     -0.58051175584857
  H   -0.09003014699970      2.16896648061419     -0.84288767400201
  N   0.15790709119009     -1.02336104035848      1.93842856195072
  H   0.92650412640658     -1.48395366686495      1.46205334648871
  H   -0.67818484539559     -1.64020247816417      1.93258521430829
  C   0.63212937086818      1.36496844505803      1.74481646500249
  H   0.31557004635424      2.32907991043919      1.33506443686476
  H   0.53610987241664      1.39767333811988      2.83166129038814
  H   1.68749704139591      1.21527843248633      1.50404046115120
