12
Coordinates from ORCA-job run
  C   -0.48158792582364      0.08160521332641     -0.17981458948558
  C   -0.41899790094331      0.56679010752325      1.22523156820918
  F   1.31741497921670     -0.63866413512438     -1.39944301622727
  Cl  -2.97950305829365     -2.14968512815134      1.65180798880610
  H   -1.06775300408886     -0.01646389475787      1.87821267428656
  H   -0.68994914624967      1.62431711245190      1.24487362503403
  H   0.62223456516221      0.48700139370922      1.54813192582352
  N   -1.25456722566462     -0.90345001309944     -0.48589469211980
  H   -1.85840942602103     -1.39128817219069      0.23228575438234
  H   -1.17892593774424     -1.27395841662416     -1.42372863156294
  C   0.26086605864501      0.79103946637274     -1.20050231440491
  N   0.31197802180511      1.83699646656438     -1.76801029274123
