16
Coordinates from ORCA-job run
  C   -0.17164119662778      0.01234904759953     -0.47802482874001
  C   -0.31945702115753      0.09949693893648      1.06583965106736
  Br  1.80898269979511     -0.29507476426900     -0.92399485728849
  F   -2.27380275655135     -1.60946038040784      2.29075044885364
  H   -1.40828376786728      0.14692358087271      1.21350986991740
  C   -0.46200048740026      1.27454194659441     -1.16056440442684
  N   -0.72903611932764      2.31025874229277     -1.65016755665971
  N   0.40848694604580      1.25129766817728      1.59566628959647
  H   0.20877332610731      1.26556614327492      2.59048855199335
  H   0.02268804058700      2.10810562699753      1.20887776957570
  N   0.08342194095094     -1.14141298733000      1.63224940135679
  H   -0.77516657294245     -1.49361663230057      2.15802291210149
  H   0.96510384310591     -1.05579710655217      2.11747038260332
  N   -1.01114409985040     -1.02237136529100     -0.91466171271165
  H   -1.02777114294348     -1.74066240928996     -0.19055093471622
  H   -0.76577363192390     -1.38982404930513     -1.82237098252261
