16
Coordinates from ORCA-job run
  C   0.15974407720086     -0.09600872286133      0.03384505654904
  H   1.62506551739684      1.26487664662123     -0.00163435807438
  Br  -1.80717489104654     -0.30819497869279     -0.19472751839799
  H   2.65262254270950      0.19294310445332     -0.48578393473916
  C   0.49201034759331      1.39091191857897      0.05751670911401
  C   0.82408450630701     -0.75054673573706     -1.12620467410265
  N   0.81549206717716     -1.50261844283080     -2.04498181708612
  C   0.56304173485200     -0.78929462823456      1.32445944565478
  H   1.64755593484861     -0.67264353129419      1.40889678369105
  H   0.05642849546530     -0.34146461750209      2.18130154175687
  H   0.31750475515039     -1.85143421925315      1.26945065786855
  C   0.08832421022400      2.04458706690101      1.29617610708444
  N   -0.21778048241328      2.64087034760306      2.26568530751465
  N   0.05884482847030      2.07040980585153     -1.14859020094245
  H   0.68587256497037      2.84010228336649     -1.34442505024780
  H   -0.88485620890583      2.42334470303032     -1.05080405564283
