11
Coordinates from ORCA-job run
  C   -0.11035220130706      0.02724352400952     -0.43898927357420
  C   -0.14786258578108     -0.31962608575505      1.04354169420547
  F   -0.00289949152979     -1.14722956785651     -1.18197557724350
  H   -2.42218185036609      0.76169468224602      0.99848478347670
  H   -1.07942554459719     -0.87258990436412      1.21061190174918
  H   -1.06407277453432      0.51882539863536     -0.64374411927731
  H   0.75183573275554      0.65600923005036     -0.67692498056892
  C   -0.26033893641549      0.92359841866445      1.82928239305957
  N   0.10772579701609      1.81565968723499      2.51265963764080
  C   1.04162168305042     -1.09177031713117      1.43512515631961
  N   1.97605017170904     -1.73124506573380      1.74899838421254
