14
Coordinates from ORCA-job run
  C   0.44590493807006     -0.05720815449101      0.02267456516693
  H   1.69825760272554      1.56321875786397      0.23151696929411
  Br  -1.78555378770517     -0.30080472451827      0.40983017292755
  F   2.36738381882996     -0.11790323427130     -0.61371440470050
  C   0.63221428872965      1.43884118459589      0.04256820631542
  H   0.38487408596006     -0.54998822575310     -0.92516521347140
  H   0.77358611789805     -0.61568273379037      0.88065605657020
  N   -0.03169082247868      2.07307522013182      1.23513637746469
  O   -0.76871376099002      3.04348388705876      1.06773838803692
  O   0.27234761034026      1.61187943450547      2.33299904784777
  C   0.23644333265471      2.09796507347702     -1.25458411691667
  H   0.87428818564575      1.64884697851044     -2.01733170396932
  H   -0.81447168092823      1.91343847292031     -1.48083334529066
  H   0.40868007124808      3.17458806376039     -1.22690099927504
