11
Coordinates from ORCA-job run
  C   -0.31129090902705     -0.00973817664322     -0.52834904913841
  C   -0.67991900592610      0.07306473134260      0.98637368598910
  Br  1.65384032282680      0.08055545964231     -0.81907971920152
  H   -1.56920408743787      0.13056197491002      3.58423565601953
  H   -1.21586716548336     -0.80832856039287      1.33402902304185
  H   -1.32300184014965      0.92282361811823      1.20746405702760
  H   0.20105610281016      0.17033911428941      1.61400282410004
  C   -0.88112115137104      1.09878145763911     -1.29313867746471
  N   -1.35056834108702      2.00014213363832     -1.88411948637681
  C   -0.74853096097073     -1.26799672399224     -1.13189544968259
  N   -1.11746296418414     -2.27617502855165     -1.61090286431413
