19
Coordinates from ORCA-job run
  C   -0.09370452248563      0.06704940488580     -0.44591172198408
  C   -0.10694105095244      0.10537300803083      1.09592801244858
  F   1.25513329053304      0.03953479676823     -0.85598795762962
  H   -2.81908936144490     -0.70216996254706      0.88998399904937
  H   -1.18753789480226      0.21568116412172      1.35403017259456
  N   -0.71804625778736     -1.14238385174065     -0.91657128873864
  H   -1.64459292651818     -1.16249636290050     -0.44110799061541
  H   -0.19368596552293     -1.93290794667067     -0.55715135438609
  N   0.63660865375589      1.26804610875178      1.68831474702823
  O   1.05058152297653      1.16540557117490      2.84736204492125
  O   0.76001657153368      2.30339093699186      1.03181443328834
  C   0.37165292659899     -1.18910539329405      1.72874210907124
  H   1.30387637452642     -1.53531103812403      1.27339620138031
  H   0.53069748033333     -1.04706701072003      2.79497945654534
  H   -0.41523899592524     -1.93286337660470      1.60328267917763
  C   -0.80063876193182      1.22129394038177     -1.12469988473815
  H   -0.82267181912196      1.00053459289243     -2.19303905460795
  H   -1.82737573512494      1.24955131858808     -0.74899629635005
  H   -0.30382352864018      2.16803410001430     -0.93925830645488
