10
Coordinates from ORCA-job run
  C   0.49070600413658     -0.03512308494860      0.00850184687212
  H   1.71018983647411      1.68993104353896      0.01542546039028
  Br  -1.64573938277957     -0.31814273976709      0.16845814579761
  H   2.69992513037632     -0.23948087222432     -0.03379043905264
  C   0.64216073946678      1.47907761721603     -0.02915472277451
  H   0.73833347765694     -0.57089872788169     -0.89394761261730
  H   0.85812439236772     -0.50636524098914      0.90554365478021
  H   0.14106792275424      1.92175985299031      0.83590015054352
  C   0.09445540575122      2.09398916297814     -1.23624270952341
  N   -0.29705352620433      2.62922298908739     -2.20532377441587
