14
Coordinates from ORCA-job run
  C   0.57992052881391     -0.07548660197273      0.01063697973020
  H   1.50152167139721      1.79898796852606      0.50187300715130
  Br  -1.97257382506202     -0.16306000593386      0.23963250420535
  Br  3.06512510362337     -0.07362830175225     -0.58436055132773
  C   0.57548083260828      1.45411001333163      0.03945314886795
  H   -0.26638855443645      1.79151193965262      0.64583242989046
  C   0.39458746986667     -0.81645403814511     -1.20488589125797
  N   0.24045289217201     -1.45325004639460     -2.18615065689728
  C   0.74847968137729     -0.78862024532691      1.34171615277169
  H   1.79567149959901     -0.80639866415422      1.63683270928519
  H   0.15801688134916     -0.27323548548930      2.09933560897693
  H   0.37459998322093     -1.80858504515987      1.26314344831279
  C   0.46401503515131      2.07064209818985     -1.27710356853892
  N   0.36415080031928      2.62195641462869     -2.30857532116995
