12
Coordinates from ORCA-job run
  C   -0.58859752260113      0.04420597438777     -0.28607725069561
  C   -0.06263347285605      0.10942544067077      1.14912673177048
  F   0.09015077674116     -0.89442788654195     -1.01379782054589
  F   -2.34830827785914     -1.04356311097332      1.43030026508773
  H   -0.99838760296708     -0.27714215352850      1.68711056055189
  H   -1.64559929153639     -0.22009843110116     -0.21585548028470
  H   0.72394378588655     -0.64407059832457      1.23665391906796
  N   -0.44746826015193      1.35421056786031     -1.01196138602940
  O   -1.25032173595207      2.22224237264192     -0.67878204404098
  O   0.44022906604504      1.48061120280042     -1.84985132827423
  C   0.43920195178692      1.39164859927117      1.59680045017456
  N   0.84829058346417      2.41388802283714      2.00951338321820
