17
Coordinates from ORCA-job run
  C   -0.17289046698829     -0.03118998875983     -0.34439757689150
  C   -0.19413240958591      0.01755238210239      1.11363061840004
  Cl  1.59386283809027      0.03708894672767     -1.14147945970633
  H   -2.64109336982268     -0.52602385527224      1.65336112269366
  H   -1.39318309884187     -0.06918301654129      1.37555083669851
  H   0.19649732133385      0.96309715506570      1.48961112691934
  N   -0.78989681547121      1.25435549441585     -0.87908668866045
  O   -0.38454319878318      2.31351256680767     -0.41045130892217
  O   -1.66797451271156      1.16009352834113     -1.73572222018463
  C   0.38564106597309     -1.20129275515135      1.80441534358235
  H   1.36112782075543     -1.49864292594913      1.40388358670743
  H   0.50177458131935     -0.99210714007905      2.87160321576959
  H   -0.31282033530926     -2.04082288471352      1.72605659350044
  C   -0.86084941545267     -1.23037507264168     -0.92166454494538
  H   -0.29105380034149     -2.12293974417972     -0.66265842924119
  H   -1.84911108937652     -1.28738680482213     -0.44080796189747
  H   -0.95632511478737     -1.16402588535046     -2.00336425382225
