19
Coordinates from ORCA-job run
  C   -0.11578884853534      0.03718299039185     -0.41792330852262
  C   -0.12262410570380      0.03155649539308      1.05008223381668
  F   1.22575209190991      0.04656310760249     -1.03049118568206
  H   -2.45029787792768     -0.29556746307483      1.82483954950486
  H   -1.42654013246389     -0.05424583823165      1.41127029589975
  C   -0.72432173357907      1.28046724340876     -0.93587930046595
  N   -1.21795881280100      2.25649435489059     -1.36677923761000
  C   0.46863626025211      1.25601471194986      1.71106707384980
  H   0.14446103219320      2.18184516435258      1.22440849395570
  H   0.11940083279862      1.30310098637910      2.75223109024600
  H   1.56988412200778      1.25723898206458      1.72860396774764
  C   0.37397984287124     -1.25608932928605      1.67278741381507
  H   1.40423820822834     -1.51936773529897      1.39143966315655
  H   0.33736451506733     -1.15016036830706      2.76355960532740
  H   -0.28586552275670     -2.09785224139435      1.43440945937512
  C   -0.82303861381750     -1.16023006545096     -1.02964417750396
  H   -0.23480041785540     -2.05807548018695     -0.83713130764328
  H   -1.80773799658907     -1.26612276282273     -0.56164104613195
  H   -0.92694284329909     -1.03751275237936     -2.11023928313475
