18
Coordinates from ORCA-job run
  C   -0.13309369096639     -0.01771492154295     -0.35698966113015
  C   -0.12075869952204      0.03592300661374      1.16861665013636
  Cl  1.53577623022069     -0.31691306563580     -1.05857092383685
  H   -2.89801076412023     -0.28556277208739      1.48992890935855
  H   -1.21247030832495      0.12569836863807      1.42516155244496
  C   -1.01469538493821     -1.17480458559116     -0.77805273894132
  H   -0.57131673475945     -2.12896514043767     -0.49057371731550
  H   -1.97768041707861     -1.06225173692004     -0.25755320175411
  H   -1.13740610145236     -1.14420833753867     -1.86190214244387
  N   -0.64842575471083      1.20011330284626     -0.94557890014257
  H   -0.09353420418520      1.98943217314238     -0.63130272956877
  H   -1.59347646439041      1.30743162355924     -0.57497398081889
  N   0.42884173725725     -1.06830848093740      1.88504469702826
  H   1.11487779633962     -1.56907318891214      1.33602012477830
  H   -0.33476814204560     -1.67695743700085      2.15662020759520
  N   0.52647627238398      1.30212532421441      1.67742307280468
  O   1.65342650629785      1.59978735263096      1.27348496928891
  O   -0.10565187600513      1.96024851495900      2.50270781251682
