10
Coordinates from ORCA-job run
  C   0.48324577680573     -0.04403259876501     -0.04351010775398
  H   1.48842999573222      1.75310514577861     -0.48846844124722
  Cl  -1.47658450781960     -0.43452631811287     -0.65215921008762
  F   2.39827652910321      0.10610127531160      0.59038589048804
  C   0.53317135111741      1.46988744401898     -0.05156281837469
  H   0.96677580884697     -0.55195226833605     -0.85563812979554
  H   0.41769950891615     -0.55862937019367      0.89470130958536
  H   -0.29323658348904      1.91392021003045     -0.61152570920290
  C   0.49894484067428      2.00579157230356      1.30692049813445
  N   0.41674728011263      2.48381490796439      2.37508671825410
