16
Coordinates from ORCA-job run
  C   0.46808844655320     -0.02312875189911      0.03405787859840
  H   1.70038382968709      1.64567927553387     -0.14297797393847
  Br  -1.76856786719222     -0.32252645110675     -0.26390798755515
  H   2.62882386233553     -0.36267843325411     -0.22809660713200
  C   0.63009301548509      1.49558582079595     -0.00899232084357
  H   0.74773148417425     -0.53212268381100     -0.86894313144693
  C   0.61402578741234     -0.73328425422450      1.36793632312112
  H   1.55822028538825     -0.48224688868806      1.84372929600269
  H   -0.22241198289045     -0.47509933000597      2.02173194906490
  H   0.60704564217673     -1.81135455732989      1.20079444452930
  N   0.14731821046327      2.10207576518072      1.25240957852045
  H   0.41336240063447      3.08237950889765      1.22233186836483
  H   0.66838528990941      1.69496360897723      2.02405581265028
  N   -0.01488747471251      2.08325039210913     -1.16687322479545
  H   0.25639232700375      3.05833395702539     -1.23286693742776
  H   -1.01854325642822      2.03114302179944     -1.03294896771266
