11
Coordinates from ORCA-job run
  C   0.68344605134547     -0.00699593412185      0.01604467797256
  H   1.49810297268386      1.90271078719170      0.52418333937382
  Cl  -1.61131325396524     -0.31887843601247     -0.16952482062233
  Cl  2.99178935507587     -0.11911624663232     -0.20348437267560
  C   0.61294952014696      1.48814627646540      0.04949760443357
  H   0.70433229141305     -0.64585897651339     -0.84136380285023
  H   -0.27386401237932      1.81514037310599      0.58546166782275
  H   0.55808696677203      1.84244541822175     -0.98021952988298
  N   0.72563711387633     -0.72404480269843      1.30544398628985
  O   0.71372080866185     -0.03554483256636      2.32397849497671
  O   0.77050218636912     -1.94738362644001      1.26795275516189
