14
Coordinates from ORCA-job run
  C   1.70266818048450      0.12906121115827      0.05596044031393
  C   0.48883429087807     -0.02959861089325      0.94117387921826
  Cl  1.55109098835949     -0.93015362326321     -1.40511124507490
  H   -4.91817333193066      0.95598943500753      1.87906471733601
  H   0.72049203069089      0.53574694637009      1.85218700862485
  H   -4.26320274743144      0.96107143657414      1.54015490930698
  C   0.23022399350515     -1.41823137103518      1.39538429115665
  N   0.02770971890020     -2.51815042794984      1.76044566960176
  C   -0.79498637052570      0.55191891789330      0.29595193511856
  H   -0.55323579273056      0.89912181114539     -0.70840528034536
  H   -1.59850334383756     -0.18542510374847      0.22567828506189
  H   -1.16341391761899      1.40433371012703      0.87394756348541
  C   2.94035857323908     -0.04875543384241      0.70626880372880
  N   3.99389772801740     -0.08003889754343      1.25342902246704
