16
Coordinates from ORCA-job run
  C   -0.26104079789476     -0.10300027308068     -0.20788879534552
  C   -0.13065284772726      0.06352313758567      1.20378534084180
  Cl  1.47498182734913     -0.16253249797287     -1.27573416380787
  F   -2.54293655311796     -0.61925238977928      1.62534075397216
  H   -1.50163192901022     -0.14577795809357      1.52114999099833
  H   0.25010100848016      1.04694828423071      1.46883662033749
  N   -0.93363029994859     -1.25267803003863     -0.62384214763572
  H   -1.77388545988135     -1.32555373320980     -0.05105043816292
  H   -1.14889863091849     -1.21648513080270     -1.60952546613968
  C   0.54668738224114     -1.08933539316042      1.91920563010920
  H   1.55569121331641     -1.28089729724068      1.53052496659909
  H   0.62358411020247     -0.87186632288951      2.98930337804642
  H   -0.03570632594305     -2.00614717822103      1.81293271073364
  N   -0.80969943614373      1.19686576321007     -0.86451149183928
  O   -0.41364250629129      2.27739906854045     -0.44597989492048
  O   -1.61762075471259      1.05592995092226     -1.78152699378663
