16
Coordinates from ORCA-job run
  C   0.47807884074577     -0.06461559854009      0.04053858003713
  H   1.72522570997919      1.69226818623886     -0.07636205582769
  F   -1.20172444005517     -0.00109244401480      0.05935741871071
  H   2.31848578954935     -0.37781185770849     -0.24359105378572
  C   0.66855109139033      1.45601623982495      0.01865527773966
  H   0.15178672871668      1.81639308243885     -0.87685215561276
  C   0.63733907425598     -0.76126867729628     -1.20785010597912
  N   0.50900078834999     -1.30433130635106     -2.25259440839025
  C   0.66274201430788     -0.83852114467847      1.34021046492930
  H   1.51125554010488     -0.47615660800351      1.91545007453880
  H   -0.25578338059992     -0.74850548056473      1.92627358925385
  H   0.84255860577528     -1.88996048308021      1.11289797135361
  C   0.07720019816554      2.14485322195546      1.24568637866156
  H   -0.98760074203260      1.93088606297446      1.31756629456267
  H   0.56443585991814      1.80790200020314      2.16518239961881
  H   0.22130832142870      3.22873480660186      1.17586133018942
