13
Coordinates from ORCA-job run
  C   -0.03781888131580     -1.34542377580484      0.01078857227385
  C   -0.07788252637959     -0.85233086817686      1.44685194121758
  Cl  -0.78827016493775     -3.08507123802250      0.04034776457347
  Br  -3.01641645912317      1.33395843202923      0.96649721169657
  H   0.46807062287523     -1.56713289031488      2.07019820833692
  H   0.97618850212339     -1.56899386231175     -0.32627275525190
  H   -1.12747618439370     -0.85209605398438      1.75538497792317
  N   -0.67015367823605     -0.44994170479536     -0.85143679768721
  H   -1.53852048582482     -0.06258955754971     -0.47573237247000
  H   -0.76750444699122     -0.78101159757212     -1.79895364505136
  N   0.51644014460214      0.48937076790720      1.55794151351696
  H   -0.16247248007057      1.05920544801201      2.05271843436231
  H   0.51125603767187      0.89039690058392      0.62631694655969
