19
Coordinates from ORCA-job run
  C   -0.22460006618667      0.00767820395181     -0.42695347635021
  C   -0.24543071128766      0.06333945593077      1.02806327139677
  Cl  1.55384681121081     -0.00705873166947     -1.21701026809944
  F   -2.50674166311280     -0.29043000153950      2.04000190211153
  H   -1.56136801833402      0.01825430335922      1.43776654047714
  C   -0.90226185608303     -1.20584210393561     -1.01637598506146
  H   -0.33136429976485     -2.07723421011508     -0.70805695963138
  H   -1.90699849277160     -1.27440352307448     -0.59782782767975
  H   -0.94859317603194     -1.14055396959926     -2.10384758976151
  C   0.43488474990445      1.22772647616893      1.71617822942538
  H   0.08398269539351      2.20257143519417      1.37567844218652
  H   0.22381811582915      1.15154326111495      2.78785660984918
  H   1.52749197137697      1.19971359382281      1.57394921205591
  N   0.16418977722267     -1.23441964228556      1.56599536247608
  H   -0.45749198409884     -1.44337326711140      2.33882499565063
  H   1.11747571530203     -1.18152646118009      1.91523549539673
  N   -0.83705161357244      1.27564880805103     -1.00577649197733
  O   -0.21054181801161      2.32840352961053     -0.93131540773965
  O   -1.97084613698411      1.17537284330625     -1.47645605472510
