15
Coordinates from ORCA-job run
  C   -0.22682658302684      0.07011398842967     -0.31561514982873
  C   -0.00747693054855      0.10361755497742      1.06386082830418
  Br  1.92414514393306     -0.36723261859964     -1.52969444642079
  Cl  -2.61129919149203     -0.18704185230851      2.34501436787981
  H   -1.32964501483596      0.05989495821454      1.45278375723191
  H   -0.60503894420595     -0.85384296709251     -0.74065453062508
  C   -0.62268064884350      1.26494962542609     -0.99989150325550
  N   -0.99882072540605      2.24971929308508     -1.52678834248266
  N   0.54182150149140     -1.08833428886653      1.64291918807577
  H   0.79389995701375     -1.75186869876491      0.92047008744922
  H   -0.10422220927644     -1.50741270402411      2.30191589315963
  C   0.48765587473727      1.37002220973101      1.71495559124990
  H   0.34509420708811      1.30048816185611      2.79557730678283
  H   1.55848666793584      1.46665486452264      1.50691380817308
  H   -0.03779310456411      2.25353247341364      1.34668314430643
