13
Coordinates from ORCA-job run
  C   -0.16502012612939     -0.05086315485435     -0.40103420049726
  C   -0.30581280806327     -0.03368730213095      1.09234686555670
  Br  1.81003175104862     -0.00687976918383     -0.99508038895772
  H   -2.36445906008397      0.55703815187930      2.50622739477223
  H   -1.42400095057769     -0.06457867999068      1.40907098455525
  H   0.16435315553604     -0.94048983363833      1.49384214885759
  C   -0.68295978305561     -1.28492860816600     -0.98689061883409
  N   -1.10983470894680     -2.29460668998227     -1.41267871636026
  N   0.13359017024915      1.22169200580839      1.64592316526732
  H   0.99039973420303      1.11065528820030      2.17114211615656
  H   -0.63217521866381      1.47303793070485      2.29012050785025
  C   -0.76735245908142      1.11618373307743     -1.03738068826475
  N   -1.27510969643488      2.03078692827614     -1.57352857010183
