14
Coordinates from ORCA-job run
  C   -0.12191411427478      0.00199492607290     -0.43893219318072
  C   -0.20179342553023     -0.03521258436280      1.03776896115457
  F   1.21549958022106      0.02700800679557     -0.96464887792274
  H   -2.51383684311014      0.14457442146927      2.14544713592070
  H   -1.36367178468365     -0.00976304764971      1.42942427729450
  H   0.19149040945659     -0.99659453366239      1.38520116322132
  C   -0.76237583607949      1.21063678739691     -0.99836811893964
  N   -1.24893164520223      2.17965574927486     -1.45020703000244
  C   0.44840432621792      1.14636844164840      1.73153375429993
  H   0.11235407560389      2.09052227604130      1.29193450771609
  H   0.10390562775806      1.15067301712959      2.77145982858657
  H   1.54245111600787      1.12551848307022      1.70966087729982
  C   -0.74406905045917     -1.19592535521680     -1.03609624505293
  N   -1.22188243592573     -2.15638658800733     -1.51509804039503
