9
Coordinates from ORCA-job run
  C   0.49512947944099     -0.22297600198256     -0.53556732925969
  C   -0.43510136292271     -0.41265125415702      0.53080283521584
  F   0.88066736506534      1.23058361678137     -0.98957867922059
  Br  -2.85533359483757      0.46753652244929      3.07323010183840
  H   -1.91446111839637      0.22925884019611      1.99246900855595
  H   1.49770474017402     -0.60226116157795     -0.31082423261909
  H   0.14496451647295     -0.61225420893852     -1.49744493717519
  H   -1.43799751144098     -0.04164515746612      0.27647055271672
  H   -0.06345251355568     -0.03559119530463      1.49192267994768
