15
Coordinates from ORCA-job run
  C   -0.44391126176215      0.00296378140372     -0.22877904148793
  C   -0.12643846094432     -0.00049963387590      1.09986730138555
  Br  2.15816117549760     -0.00766962167725     -1.76037800513331
  Br  -3.06840167775719     -0.02582557577516      2.18890453002770
  H   -1.56067633662919     -0.00143147998824      1.50133326448414
  H   0.19486036525894      0.92186110150998      1.57394684153517
  H   0.19247582242659     -0.92552020969738      1.57037024460373
  C   -0.84244355382439     -1.26751757834876     -0.90785559307122
  H   -0.30008685546483     -2.12003357653615     -0.49933114934125
  H   -1.92053202824549     -1.41965567917305     -0.74983600676959
  H   -0.63607452029023     -1.20800965698716     -1.97441927246523
  C   -0.84267288262836      1.27631234174657     -0.90189806391433
  H   -0.58112347134863      1.24133992444491     -1.95748384451126
  H   -1.93080001883306      1.39919103716616     -0.79742739688025
  H   -0.34557629545530      2.13516482578775     -0.45037380846191
