16
Coordinates from ORCA-job run
  C   -0.18083567439876      0.03733250909498     -0.36130906957719
  C   -0.27592341698317      0.01130675128705      1.09555728687929
  Cl  1.61413689445301     -0.03526198115907     -1.07255108171123
  H   -2.51864410772384      0.51458061923678      1.95451338484124
  H   -1.50228188569096      0.04912157823863      1.38306293797318
  H   0.13704592209234     -0.90558850267274      1.52153620589179
  N   -0.77554582125471     -1.25341402291330     -0.88911705523294
  O   -1.66924157313021     -1.17499526088203     -1.73304150032192
  O   -0.35251168794792     -2.30672791900465     -0.42045632663444
  C   -0.82569690605757      1.23856385526110     -0.98596151132518
  H   -0.79351884956066      1.19843411654902     -2.07322067900756
  H   -1.86227117560837      1.28682960050552     -0.63596502907565
  H   -0.29498207536026      2.11250931772806     -0.61339998547151
  N   0.14151522680417      1.25549716384476      1.71149144113108
  H   0.94411701685967      1.10609473744225      2.30771761926039
  H   -0.65154188649279      1.54636743744366      2.29452336238066
