15
Coordinates from ORCA-job run
  C   0.04225066994320      0.05089367294936     -0.48841699808771
  C   0.03660782031761      0.05143829665903      0.95904524965892
  F   1.36193101818241      0.09170392569044     -1.19640299364782
  H   -3.27613519373582     -0.12582113118121      2.44159717722416
  H   -2.62470236263158     -0.14360026634277      2.08405115302922
  H   0.61385389503434      0.89368061008999      1.35108817738259
  C   -0.56362333804614     -1.17912174458861     -1.03440011897405
  N   -1.06444206482318     -2.13056950859725     -1.50974660762549
  C   -0.66163394893205      1.28147235650586     -1.05066164790256
  H   -0.53754966650410      1.31971733615702     -2.13536524600024
  H   -1.72074160389216      1.27356553578643     -0.79483084194064
  H   -0.19600201749916      2.16770201291205     -0.61257063548386
  N   0.64680696617603     -1.17465189515205      1.52517460051579
  O   -0.03504758289784     -1.87248289364014      2.28919948309288
  O   1.81885740930844     -1.47300630724819      1.24415924875883
