19
Coordinates from ORCA-job run
  C   -0.10764510921359     -0.01860151551018     -0.39630623231810
  C   -0.07654934699319     -0.13134612151768      1.12415135003297
  Cl  1.50900058206553     -0.04568069898502     -1.19823879127549
  F   -2.44557210865815      1.05227184404632      1.48003383770559
  H   -1.14364355646645     -0.15964123393913      1.42715536770876
  N   -0.81056641471034     -1.25597946285635     -0.97426428286803
  O   -1.46194800853410     -1.12256300834815     -2.00402214002797
  O   -0.63600318717476     -2.31752584740277     -0.38399215927957
  C   -0.86095487796639      1.22231656978591     -0.80600862269759
  H   -1.08031520270727      1.18473003808998     -1.87117015762005
  H   -1.75652178865136      1.27547543555739     -0.15446934030266
  H   -0.23023056732584      2.08898050980458     -0.60314099096111
  C   0.48372189724150      1.11789994234494      1.78787783950770
  H   -0.32793802799404      1.84299387599554      1.75085688906169
  H   0.68070501344908      0.89782390472778      2.84030631014928
  H   1.40600838718287      1.47207332671793      1.32190214678989
  N   0.64806618429856     -1.31704187109143      1.67288519904213
  O   0.01567128460380     -2.05986694623321      2.42125393605757
  O   1.84994484755417     -1.43169874118643      1.43148984129501
