12
Coordinates from ORCA-job run
  C   1.04792704105646      0.01753128635255     -0.00319672132956
  H   1.41218953490978      2.10779286670898      0.37902625491818
  F   -1.32573873521674      0.01409230325102      0.53349636514774
  Cl  2.77588397818986     -0.09464368135496     -0.53433610026850
  C   0.57815796188790      1.46287867861410      0.09221066725032
  H   0.43158882779688     -0.54216756614916     -0.69390997588717
  H   0.98512794575523     -0.43917456282905      0.97728928908826
  C   -0.54063631536014      1.65051176455451      1.04359086509827
  N   -0.96859903632702      2.35648044853985      1.89480923975665
  N   0.20915508518132      1.96273308997191     -1.28523680789615
  O   1.16070630632197      2.25837946317797     -2.01245832848098
  O   -0.96998259419549      2.03230590916224     -1.60794474739703
