16
Coordinates from ORCA-job run
  C   -0.49955169047616     -0.06964692844415     -0.10742822998103
  C   0.17045191974441      0.02203916501329      1.10171735847103
  F   1.17262636259047     -0.17571410043623     -1.63849380399447
  F   -2.72749855734546     -0.07520350697693      1.95157308912100
  H   -1.82846063860649     -0.16709443277461      1.72470625293501
  N   -0.72358265862011     -1.32131279206405     -0.64945064236216
  H   -1.32124671993478     -1.20881330695433     -1.46031737280432
  H   0.22912433903976     -1.47527613169270     -1.05299187958733
  C   0.49461556115768      1.28491576551331      1.67795510047756
  N   0.73890930489104      2.32144015237374      2.18110119788555
  C   0.81405360684126     -1.12345345073034      1.66043004238243
  N   1.32752873491756     -2.05715237778128      2.16062237170971
  C   -1.22187081766508      1.10153291257517     -0.68695431572551
  H   -2.29535198811989      0.89193173554789     -0.72515454686800
  H   -1.06059862410174      2.01956331720475     -0.12291957977277
  H   -0.81617813431248      1.20731397962647     -1.69318504188668
