14
Coordinates from ORCA-job run
  C   0.52940549430954     -0.01936653300689      0.01202736821096
  H   1.86820502541540      1.60949084588031     -0.08060422376391
  F   -1.26481979350423      0.22256776958341      0.06568071803300
  F   2.35863056755101     -0.48350514551991     -0.29350339859192
  C   0.79180986519604      1.46370647341464     -0.02649383922924
  H   0.39207201826284     -0.54158870356404     -0.91496370549976
  H   0.40988236274273      1.87745222742151      0.92148705442723
  C   0.60506084328871     -0.74160999343176      1.32913566484501
  H   1.49342772058250     -0.40666339052046      1.86493132631845
  H   -0.29593141520595     -0.55379803939109      1.91342006393455
  H   0.71995238069241     -1.81189481568579      1.15655183200584
  N   0.13554958718750      2.06524522243038     -1.19551743981100
  H   0.14795782953460      3.07431718904024     -1.08957079351482
  H   -0.82568248605314      1.75243689334944     -1.09732062736439
