10
Coordinates from ORCA-job run
  C   0.70696034107278     -0.02640205649946     -0.00382177903507
  H   1.49951668327052      1.85864718515940     -0.66716965655900
  F   -1.29150637461605     -0.06471930398492     -0.24700509718520
  Cl  2.75302893371531     -0.34459109252380      0.49220439305214
  C   0.69887259865596      1.48271172026907     -0.02909628930255
  H   0.35023863977777     -0.55964101624590      0.85422841627255
  H   0.86257858891624      1.86110703855489      0.98076197201172
  H   -0.27686851856997      1.78883041405181     -0.39378190926412
  C   0.67325526975873     -0.72490186336167     -1.26638783309497
  N   0.74071383801867     -1.26107102541941     -2.31064221689552
