15
Coordinates from ORCA-job run
  C   -0.11547700891465     -0.03534859353578     -0.34963610410834
  C   -0.17262204611000     -0.09019940873953      1.11441371073103
  F   1.22962574263953      0.00709621396056     -0.90772930494762
  H   -2.45596492287923      0.75184856468895      1.42902205274062
  H   -1.54094647556039      0.20604607588351      1.33197908275560
  H   0.13906035727259     -1.05780850521455      1.51608109913062
  N   -0.76985322839860      1.12317141655634     -0.93962333655637
  H   -0.16113668502410      1.91053422245592     -0.74105259184133
  H   -1.61727893073165      1.27093865986923     -0.38112870329125
  C   0.43379361709323      1.11264136540878      1.80556461832915
  H   -0.30839684756611      1.92728588149120      1.85808411339170
  H   0.69367184759658      0.86165434883455      2.83900575763335
  H   1.34134658760424      1.50268654965584      1.32593616996789
  C   -0.70108693216968     -1.26782156634352     -0.93152567531960
  N   -1.16409507485177     -2.24799522497149     -1.38415088861544
