18
Coordinates from ORCA-job run
  C   0.70139747514892     -0.07624956813952     -0.27318642133932
  H   1.74239693702034      1.64137099998047     -0.80367273338660
  Cl  -2.49658995372685      0.71450293120294      1.21136333405543
  F   2.54373129392126      0.24113600686525      1.56520544228252
  C   0.78565707467974      1.44090930539770     -0.30514029345428
  C   0.99753682707802     -0.84233151324945     -1.51022653226747
  H   0.54903858096329     -1.83842133331069     -1.50264284824906
  H   0.64760333967489     -0.27810304739060     -2.37271250164068
  H   2.08604549615149     -0.94654657178443     -1.55872118791879
  N   0.33209790132779     -0.66403524322280      0.79470831018763
  H   0.37707330779726     -0.12634027032855      1.65227337139604
  H   0.26906234497683     -1.66707478289903      0.86520546986269
  N   0.80542318592999      2.10855025439002      0.96435248823470
  H   1.55395730274692      1.62081561776436      1.49417388608234
  H   -0.10436915621034      2.00682760325162      1.40727951985952
  N   -0.30569355487897      1.83289874090846     -1.19645079202623
  H   -0.24855966924639      2.84234746725405     -1.28216382877267
  H   -1.17307873335420      1.63616340331019     -0.69183468290575
