16
Coordinates from ORCA-job run
  C   0.59898887436451      0.01647456388101      0.03283761508796
  H   1.69956413989463      1.87522139384000      0.05447677890312
  F   -0.99072726598659     -0.12547596042063      0.35061165974029
  H   2.41355683283206     -0.10499119003177     -0.01112932029779
  C   0.66419650419893      1.55328118113384     -0.01701152766317
  H   0.29596467481911      1.82089053880168     -1.01498297233548
  C   0.62848769346255     -0.77671939010249     -1.25410512049736
  H   -0.37195042865644     -0.75585544047406     -1.69619380829828
  H   1.35447853957918     -0.37031516814222     -1.95549679634323
  H   0.89789477757501     -1.80456251996662     -1.01811953452190
  N   1.08773602149463     -0.62899405503571      1.24611319770704
  O   1.24583707049585      0.09290269375853      2.25551221540746
  O   1.05883543576026     -1.86973328835402      1.31291830133080
  N   -0.12633176663432      2.28502602408112      0.96841313221551
  H   0.25469532164264      2.00465278384203      1.86629460595751
  H   -1.04643642484201      1.86076783318930      0.94098157360751
