13
Coordinates from ORCA-job run
  C   0.26838443499920     -0.10980621507535     -0.11937672060921
  H   1.62853794730368      1.39462202085077     -0.03180934136646
  Br  -1.52969516593578     -0.65300698894823      0.42617693868451
  H   2.51066200233261     -0.00504055717793      0.75506303969739
  C   0.49629281844702      1.39148534122609     -0.11433800876716
  H   1.21838000623421     -0.41223369378457      0.56448962411069
  C   0.53145855287654     -0.64988439138845     -1.43613867599747
  N   0.78507879196157     -1.13328267156814     -2.47923229846223
  N   0.05623342944752      2.01911367853790      1.17432138836281
  O   -0.27726063093820      3.20414441158723      1.14336499626383
  O   0.16361636456040      1.32895654144045      2.18027991849416
  C   -0.01522803147573      2.14253097387932     -1.24331365278242
  N   -0.39275051981308      2.72664155042089     -2.19174720762841
