16
Coordinates from ORCA-job run
  C   0.60801676208976     -0.08380091571909     -0.00740061142426
  H   1.67135163742586      1.75656452604425      0.10817588409361
  Cl  -1.78511763120896     -0.12040614426335      0.25703444541780
  Cl  2.95047518442857     -0.26305069076979     -0.15122765997448
  C   0.62604576470385      1.45858774942156      0.01320861501213
  N   0.48820349721935     -0.77153096881914     -1.25676748541165
  H   -0.43405338478908     -1.17884670042938     -1.32197222171787
  H   1.20370658319065     -1.48157294759432     -1.31518765743943
  C   0.68290162671794     -0.78413858101386      1.25512762259816
  N   0.75409514492778     -1.37303372649461      2.27379241147623
  C   -0.03176504740607      2.02864736376375      1.19065704610940
  N   -0.44678731435488      2.61216743728475      2.12223305865501
  C   0.09725529998268      2.06855948203787     -1.28257128062789
  H   0.67186815557482      1.67330115822790     -2.11933491306878
  H   -0.95412995441560      1.82276832498380     -1.41866033912572
  H   0.21578367591329      3.15440463333961     -1.23895691457223
