18
Coordinates from ORCA-job run
  C   -0.31786338014400     -0.00423290648241     -0.26086458875381
  C   -0.13464060540440      0.11914192837163      1.16516711215196
  Br  1.58214221311990     -0.30561473924217     -1.32963765635343
  F   -2.43769710615848     -0.72477778361052      1.73140036959270
  H   -1.44794666945106     -0.09258589874720      1.50385806255479
  N   -1.10723875847532     -1.08013637867903     -0.76239670904997
  H   -1.84709435225301     -1.22726511548825     -0.07334421959182
  H   -0.52925060419651     -1.90514102246081     -0.82905604759824
  C   0.53234981435170      1.36128502878690      1.70602699984953
  H   0.01155371538973      2.28160505131422      1.43549431318330
  H   0.55611255579559      1.28022342763219      2.79475292845264
  H   1.56702043982022      1.44262848894095      1.34394845752827
  N   0.41013517939150     -1.08927368171718      1.77705621349400
  H   1.12624783362449     -1.48646322548780      1.17181239747811
  H   -0.34346676421389     -1.75791853565470      1.88106725990031
  N   -0.84992399577823      1.30654738612512     -0.85059802653369
  O   -0.08341107306443      2.24846237712774     -1.02632139963192
  O   -2.06567844235382      1.34454559927132     -1.02547546667271
