14
Coordinates from ORCA-job run
  C   -0.06353996438641      0.01998138891365     -0.37225589280491
  C   -0.09542899939716     -0.13530399563597      1.08005537364138
  F   1.28928661920726      0.28752475812366     -0.94734825454800
  H   -2.43556212427467      0.24902889785693      1.74471718008051
  H   -1.54560562440643     -0.09467070896811      1.43993531566644
  H   -0.34221048269815     -0.92304418748778     -0.86057645788610
  H   0.40620328993536     -1.04908319042440      1.42107208516531
  C   -0.90835972738750      1.16361190536939     -0.89390259362395
  H   -0.90673175450373      1.18939433766296     -1.98752269983937
  H   -1.93238650595096      1.06379690332522     -0.51910806671166
  H   -0.50977729273711      2.11285385553726     -0.53046516448658
  N   0.27541480573989      1.02553529159259      1.87596951361123
  H   -0.57715462025809      1.55146305598275      2.08837025473787
  H   0.90275238111770      1.64058168815186      1.36922940699784
