10
Coordinates from ORCA-job run
  C   -0.23593749717328     -0.02795635113451     -0.26854364105660
  C   -0.16995439204360     -0.11058689043077      1.19400241334696
  Cl  1.41655761745590      0.19484994963396     -1.21837644088099
  F   -2.58560211208511      0.59767854190210      1.31121136247941
  H   -1.47160355906856      0.11031697375757      1.39990262016172
  H   0.31721563569996      0.77328859699028      1.61265462033552
  H   0.29413777274309     -1.03207297986795      1.55118906020235
  C   -0.83365823369882     -1.21300982383644     -0.87930024333588
  N   -1.30528766081248     -2.17360663378314     -1.36348005097534
  H   -0.79571757101710      0.85147861676890     -0.58164970027714
