11
Coordinates from ORCA-job run
  C   0.61028370551982     -0.02633164102289      0.03813663950040
  H   1.67791422910824      1.84062794977972      0.08747855623991
  Cl  -1.68566840853205     -0.09324275095563      0.39403523364297
  Cl  2.86947423704544     -0.39493052931885     -0.30465229207057
  C   0.65717369299961      1.46935135996197      0.00898401786147
  H   0.43558241736260     -0.58100036042285     -0.86116327170281
  H   0.71634014363540     -0.52608890259692      0.98084477230937
  H   0.03440724675551      1.91319878754168      0.77909221155495
  N   0.14817362579866      2.03619012655549     -1.27841415925506
  O   -0.17651316038901      3.22253002746809     -1.24368432059021
  O   0.14464227069575      1.33513593301021     -2.28224738749040
