17
Coordinates from ORCA-job run
  C   -0.24517028296425     -0.01246659784282     -0.21883200668091
  C   -0.15193890785122      0.12666841257672      1.26995227900565
  Br  1.47143477246892     -0.30268568502878     -1.16170371614520
  H   -2.78080602591097     -0.72787994513055      1.67939859545408
  H   -1.25204935365761      0.07717986660739      1.55432114904132
  H   -0.88150380038943     -0.86149448922558     -0.46707434150892
  N   -0.88729726779322      1.15657369006345     -0.91644651657952
  O   -0.39497992009273      2.27256343871405     -0.76807261112968
  O   -1.87334495412058      0.90351738764000     -1.60476740090174
  C   0.56206266733545      1.35130038414838      1.81520698244558
  H   0.05034116684073      2.27820448678702      1.55889871341821
  H   0.59395677184498      1.27348974137118      2.90646417459048
  H   1.59349943477167      1.42114169062527      1.44997592621011
  C   0.40352809021119     -1.16568513221210      1.85532976040868
  H   0.29606280124551     -1.13036727508605      2.94293791065002
  H   -0.19275942145593     -2.01441464352388      1.51028959335750
  H   1.45864422951750     -1.32177533048371      1.60710150836433
