13
Coordinates from ORCA-job run
  C   0.36655968346173      0.12204304577008     -0.00131241745803
  H   1.39892080217398      1.85044409742331     -0.53718785439764
  Br  -1.48617925307228     -0.39531734432352      0.56827398004578
  H   2.99496221996162     -1.25136245581994     -0.03548304452153
  C   0.39857223454691      1.63460450110286     -0.14823827896006
  H   0.99862862219336     -0.19101084994283      0.84383225910711
  H   -0.32116660773457      1.93198057786803     -0.91570422269068
  N   0.76532641610169     -0.52489282256056     -1.21820089373666
  H   0.19078775028955     -1.34433593035673     -1.37674603030744
  H   1.72823264594886     -0.89636653169992     -0.94882674901792
  N   0.18576831465983      2.42793767941638      1.06047637822671
  H   0.88692106770003      2.15506481458044      1.74116390050546
  H   -0.71132389623070      2.16644121854240      1.45479297320490
