15
Coordinates from ORCA-job run
  C   -0.06203383436620     -0.00234223381213     -0.46694038657347
  C   0.08699266321327      0.02739151823240      0.95636964292366
  Cl  1.75251133056367     -0.21128377627063     -1.49294180475244
  Cl  -2.62003089524821     -0.18784606145689      2.18462382796983
  H   -1.34896005872906      0.00007949964844      1.47709590075130
  C   -0.74441744300309     -1.18084525012361     -0.97811561473926
  N   -1.31373701777682     -2.13622357119245     -1.36257727094466
  C   -0.55752811463538      1.22269728934163     -1.06938674401530
  N   -0.98464528084693      2.21116588042113     -1.54388498680692
  C   0.61176050590619      1.24894094158725      1.48655317303199
  N   1.04778221868968      2.23522874391459      1.96229955738318
  C   0.58121347394007     -1.23405346490362      1.63235177375705
  H   1.63562017586484     -1.41398868836736      1.39536293414252
  H   -0.00739078758358     -2.09455034811536      1.30598800863573
  H   0.46417306401155     -1.14239047890338      2.71396198923675
