16
Coordinates from ORCA-job run
  C   -0.22070514025476     -0.01644674286363     -0.27179353105463
  C   -0.08922052969888     -0.05838883324169      1.21011498491219
  Br  1.43110271735732      0.32678275124763     -1.27232651564228
  F   -2.43759415640649      0.68486502402552      1.23525771932278
  H   -1.28401254489556     -0.01688121666467      1.46634911994193
  H   -0.90275270177109      0.80411742920577     -0.49020088106152
  N   -0.92686660681825     -1.22959447309060     -0.86458806941282
  O   -0.88881246874025     -1.36059923054248     -2.08395275591375
  O   -1.56836801231821     -1.93023745966463     -0.09573357683712
  C   0.40267907819047      1.24447931145905      1.80672147917659
  H   -0.30543869586596      2.01794733254360      1.51051442102183
  H   0.37714878564692      1.16706674788724      2.89296268522942
  H   1.41714690490354      1.50456543460194      1.48668394161509
  N   0.69344041150298     -1.19851583849288      1.68966081657475
  O   0.97292643484306     -1.23560991818746      2.89310972002892
  O   1.01629652432511     -2.08518031822271      0.89098044209862
