13
Coordinates from ORCA-job run
  C   0.64938932490866     -0.04550507585066     -0.15433208927188
  H   1.10697291292176      1.43043313292674     -1.57020533091914
  F   -0.82651576724299     -0.07517159105987     -1.08400540334048
  F   2.14962761142011     -0.20507595352222      0.67805945884067
  C   0.88185888307805      1.41252381490331     -0.50288044901023
  H   1.74168662037926      1.78482428610010      0.05071691396157
  N   1.14487025224211     -1.11355615363046     -1.08975528924722
  O   1.74940500094403     -0.74251169425821     -2.08741123183707
  O   0.91654253588248     -2.27181054119465     -0.77849174950686
  C   -0.07585278241654     -0.45359321692927      1.03198038209122
  N   -0.66156428282390     -0.73464937920166      2.01001110084773
  C   -0.27474339263516      2.26570071240454     -0.24226109601043
  N   -1.11889691665788      3.04879165931226     -0.01576521659788
