13
Coordinates from ORCA-job run
  C   0.76387971086439      0.01441381787175      0.18241413701820
  H   1.77690962301918      1.86132373992944     -0.27262845480621
  Cl  -1.24409396572682     -1.47429342939722     -1.79712583716692
  Br  2.50669365125053     -0.69906557922728     -0.37477661016584
  C   0.78207776981957      1.56887355709255      0.08776527525681
  H   0.03628381990772     -0.46015880322241     -0.52596610614673
  C   0.51621108568057     -0.45030390327355      1.53506416424585
  N   0.34221558104371     -0.83155124680659      2.63356794217153
  N   0.43329471398981      2.18508163866663      1.36992427923850
  H   0.43199292453588      3.19322837724190      1.26413006198092
  H   1.13115741114046      1.93680270871789      2.06240002500002
  C   -0.17032411248252      2.07242771022486     -0.91413269489146
  N   -0.87617821304249      2.62861141218201     -1.66943618173466
