15
Coordinates from ORCA-job run
  C   -0.16838700322598     -0.10206322159067     -0.35887842972811
  C   -0.00752044343355     -0.17041200627514      1.22622319512921
  Cl  1.38891460513204     -0.50162100201519     -1.20801272874323
  H   -2.72877207382176     -0.04443455230217      1.21465486551207
  H   -0.92717420753111     -0.71039551652740      1.51482149022753
  N   -1.20609186404370     -0.95109904518698     -0.87552678017838
  H   -2.02829528137033     -0.69750949843217     -0.27821872952669
  H   -0.95915663153203     -1.90787392471100     -0.63161721408290
  C   -0.46057988810073      1.28756256022530     -0.73996176539227
  N   -0.63058857289350      2.40758266612854     -1.05088348049563
  N   -0.11419369588383      1.07156610145041      1.95807884589110
  H   -1.11311458199942      1.29376388937087      1.92863679820120
  H   0.40968145137990      1.81559199704215      1.51272344632474
  C   1.17207392304321     -0.92714216013920      1.64353477793456
  N   2.09606426428080     -1.54665628703734      2.02324570892680
