13
Coordinates from ORCA-job run
  C   -0.40101080826114     -0.05323528872394     -0.28096481223606
  C   0.00276683744927      0.07283752704572      1.16595527798712
  Br  1.04553348064987     -0.63884175478012     -1.44420497269944
  H   -2.70621271909461     -0.56143398193548      0.65958361041895
  H   -0.97497406680187      0.13112977945344      1.68136555255902
  H   -1.34015176545963     -0.68318273276745     -0.29159485473127
  H   0.65349718098052      0.91012107943560      1.39310884036078
  N   -0.86923144677819      1.28198953511397     -0.78366747933059
  O   -0.86723968976011      2.22907412638484      0.00283468522623
  O   -1.28952860975810      1.32289866704736     -1.93321189734957
  N   0.66536606478290     -1.15312159727954      1.66361887987284
  O   0.25928950398983     -2.23720143583827      1.25416558388612
  O   1.54013603806129     -1.00345392315611      2.52221158603585
