16
Coordinates from ORCA-job run
  C   -0.19140783290283     -0.13547629582263     -0.30936317924962
  C   0.15016828424854     -0.11660935427483      1.01396545542168
  F   1.44539063353261      1.16582018810497     -1.03204274401531
  Cl  -2.83605242639128      0.29973871408043      1.97333143467148
  H   -1.66406991337377     -0.03499078334235      1.38978097624125
  H   -0.56780336189130      0.80643827729781     -0.67910427655016
  C   -0.20718608073691     -1.26553413278504     -1.27637423692697
  H   0.18711967167647     -0.86298317032683     -2.21087205523895
  H   0.40519882625886     -2.10149020183936     -0.94654903669474
  H   -1.22483382787015     -1.63630046354219     -1.44459564610617
  N   0.69306117549254      1.05639021762457      1.52797246736674
  H   0.09595207755551      1.59740662345387      2.13608518519137
  H   1.07025560676615      1.53930739213551      0.69873655260401
  N   0.50729977712919     -1.36469634790057      1.70559803293787
  O   1.29775076602777     -1.32604852305559      2.64762983397836
  O   -0.07519337552140     -2.39755213980779      1.34120123636917
