13
Coordinates from ORCA-job run
  C   -0.39119338515094      0.05804815954477     -0.37713567318175
  C   -0.33546197842674      0.27795903329632      1.15599588190073
  Cl  1.08154475813128      0.66498539859200     -1.23100890607324
  Br  -3.73142019729851      0.13517048121688      0.62060618556969
  H   -1.19810210852454      0.88792797748164      1.43781745048901
  H   -1.22027879141156      0.64485010068941     -0.76526595375683
  H   -0.49345290460803     -0.68057157115412      1.65813332717992
  C   -0.60290927698190     -1.40068571187249     -0.72085161797036
  H   0.21467237529923     -2.01330414254671     -0.33013431042250
  H   -1.55411429556606     -1.70371370840148     -0.27831387048834
  H   -0.66088043717751     -1.53881137915248     -1.80221854539749
  C   0.89483292026635      0.86111042305905      1.67910826658397
  N   1.86729332144897      1.31703493924720      2.15320776556717
