16
Coordinates from ORCA-job run
  C   -0.22491230363987     -0.03276991401075     -0.16505458548767
  C   -0.03847644784474     -0.13528526437482      1.30720023303709
  Br  1.57534414871499     -0.07493568231774     -1.24925948388949
  F   -2.53630121939646     -0.08050369097896      1.28839457593407
  H   -1.29922387321426     -0.24219795331158      1.50591341858630
  N   -0.99172984877575     -1.19383557713999     -0.80783915564772
  O   -1.65025362802133     -0.93458485481197     -1.80608667936438
  O   -0.86664776798429     -2.30285592954723     -0.30667248829663
  C   -0.85240688759005      1.20953933232931     -0.58970396253888
  N   -1.26460575748910      2.26388726855854     -0.90877742987612
  N   0.37568653667051      1.12925386540595      1.87674547543862
  H   -0.43217809644188      1.73487449906666      1.94928599662773
  H   1.07529390143462      1.59619350377875      1.30468892916159
  N   0.76639557320621     -1.22481821786520      1.79646535346457
  H   0.36740057059176     -2.09207275388881      1.46432442248093
  H   1.70589509977963     -1.15329863089221      1.40617538036998
