14
Coordinates from ORCA-job run
  C   0.60020456450714     -0.01713401585896      0.05298684740730
  H   1.70750801008651      1.66785858460927     -0.48733592686011
  F   -0.86193342145550     -0.41026506878403     -1.06435987421584
  F   1.99163476819416     -0.02539712971713      1.16220725871711
  C   0.67666072707219      1.48753435843157     -0.14218751511037
  H   1.12356954774079     -0.67564892055896     -0.61158598686580
  H   -0.03502668807100     -0.40793280800297      0.82428699175703
  N   0.45856356025831      2.10950651950549      1.17654125243846
  H   0.75812597261124      3.07853794019286      1.12172887125358
  H   1.11990539642599      1.61832276477150      1.77235601420661
  C   -0.28630224611907      2.09100643543102     -1.14854810556008
  H   -0.15582144489020      1.63760077637837     -2.12965445309116
  H   -1.30796232696176      1.89639356437349     -0.83453217078549
  H   -0.10988641939882      3.17504699922850     -1.21351320329122
