11
Coordinates from ORCA-job run
  C   -0.11048351510713      0.01014601727968     -0.35771084217618
  C   -0.13430282204294     -0.02671995748880      1.11124444246086
  F   1.20581016229393     -0.04424648711810     -0.96581270998997
  H   -2.63345769751196      0.34171848349092      1.33056415095370
  H   -1.65461569123718      0.13213064795360      1.33064979044327
  H   0.34014867559373      0.86717623501346      1.54291471607618
  H   0.31141855156954     -0.94096798131988      1.52572165534758
  N   -0.73703855372293      1.19622524641851     -0.93449047842747
  H   -0.28766114151153      1.98703881412911     -0.47823065142862
  H   -1.68653534500198      1.18765441956523     -0.55798184530745
  H   -0.62074262332154     -0.86537543792373     -0.78183822795190
