15
Coordinates from ORCA-job run
  C   0.57572796142379     -0.13770951709016      0.00711159805563
  H   1.85535867057162      1.36288962270206      0.22432051675953
  Cl  -2.33729596822117      0.16215502054728      0.44387993862225
  F   2.96574629017882      0.07610261315636      0.13095338753731
  C   0.76251505035396      1.34213448659619     -0.01625246534072
  H   0.11620372470127      1.79436531018217      0.73539945763177
  N   0.34428623995759     -0.78932647930875     -1.08619597224873
  H   0.10551718442349     -1.76568505177682     -1.04270570614537
  H   0.13534941296095     -0.28994344632406     -1.93859072356360
  C   0.70673073975977     -0.83777679521197      1.30795813387103
  H   1.73743049255040     -0.64214213268247      1.60453482742568
  H   -0.03016927594528     -0.43208713418472      1.99877107298819
  H   0.53436717907769     -1.90960214292520      1.19796206916121
  C   0.51830754348143      1.92746932268061     -1.32160965626656
  N   0.36226475472566      2.34872632363944     -2.40678647848759
