16
Coordinates from ORCA-job run
  C   1.15556423511913     -0.05094029295355     -0.00869950315646
  H   1.81348027028300      2.03103535428809      0.02422918620869
  Cl  -2.58013964886725     -0.47976715388198     -0.29791566475279
  Cl  2.97378082205819     -0.23918526861327     -0.14801799234092
  C   0.87166672440572      1.48108854358239     -0.04583273735467
  H   0.91649754774335     -0.41670630704703      0.98638132068653
  N   0.52864913470508     -0.88794846806322     -0.96285717453615
  H   0.61349230178127     -0.50970068450835     -1.89732872788853
  H   -0.47221669781215     -0.96086836723034     -0.73657811745016
  N   0.18339481640049      1.90169770145242      1.24183348635385
  O   -0.61268737136847      2.83317430729781      1.18913656232342
  O   0.55013147349976      1.35211921992404      2.27819702067336
  C   0.07333110668062      1.93221132490700     -1.24760908841306
  H   0.62994803772291      1.69034765471822     -2.15734488220352
  H   -0.89374718456911      1.42611040524094     -1.26188369093725
  H   -0.08102556778257      3.00993203088688     -1.21975999721232
