14
Coordinates from ORCA-job run
  C   -0.13681533553803     -0.07117433982128     -0.35975680068789
  C   0.05635115456253     -0.07894944935820      1.04101728073852
  Br  1.79816504359825      0.33238256398743     -1.58440316112747
  Cl  -2.75346769514969      0.39007391307961      2.03043296957589
  H   -1.46890509513935      0.03843618766256      1.48894649671210
  H   -0.62540077452125      0.81890322900894     -0.74986261033492
  C   -0.59045068111157     -1.28951576847853     -0.98465388033783
  N   -0.99969375806582     -2.27637929926336     -1.47899015856563
  C   0.52506431069266      1.20975129762879      1.67709805670159
  H   -0.05575137746315      2.04948122181873      1.28611183518536
  H   0.38878221489101      1.18064987969136      2.76041774513898
  H   1.58252772278693      1.38327976378716      1.44732701444568
  C   0.54838745373518     -1.27894039923860      1.64256878379566
  N   0.93673681672229     -2.24686880050460      2.19245642875996
