19
Coordinates from ORCA-job run
  C   -0.04792892580429      0.22659481526438     -0.43188349180284
  C   -0.05833678542826      0.12896274900827      1.11909186621307
  F   0.98729652252517      1.07531724996977     -0.87538602976983
  Br  -3.31991649026777      1.45181771500975      2.16986231041225
  H   -1.04612555751714      0.48208759760652      1.43720577167344
  C   0.24477270866601     -1.06966512622037     -1.08169131130682
  N   0.47282382376869     -2.09064694475004     -1.61559865881030
  C   -1.35182823789239      0.79223404247731     -0.95661469578236
  H   -1.31166479169242      0.89408235231324     -2.04401766881412
  H   -2.18694251062131      0.15568361748436     -0.66145004832361
  H   -1.52870718090047      1.75944205160365     -0.48465968040336
  C   0.97791416796540      1.06120898201846      1.73902751393600
  H   0.83101645868773      2.09227765185328      1.41540559618055
  H   0.86033755802933      1.03434385988135      2.82518984981118
  H   1.99912560210265      0.76108275736007      1.48570051645531
  C   0.10407395763139     -1.29406006685544      1.64701254561387
  H   1.09049923297634     -1.70971030120250      1.41445028716894
  H   -0.02211608503901     -1.28219427731068      2.73253127778895
  H   -0.65561346718968     -1.96592872551140      1.24023404975963
