20
Coordinates from ORCA-job run
  C   -0.26484089193382     -0.03238891796430     -0.25999336444985
  C   -0.21157953322002     -0.07940631869766      1.17041319871415
  Cl  1.70625855019795      0.06022008006450     -1.06058137941520
  F   -2.73533625400324      0.34883105780506      1.26251403510317
  H   -1.62802013014036      0.05850134148306      1.29281445578918
  C   -0.78654704460462     -1.26012789992254     -0.97107508767693
  H   -0.20610045701147     -2.15194451968991     -0.73828710845162
  H   -1.82605301037031     -1.40251834895266     -0.65371579303553
  H   -0.75628538983349     -1.08162217138102     -2.04478937025099
  N   -0.83570297087989      1.15912278047547     -0.86735362134623
  H   -0.24211906248627      1.94739364116739     -0.63985076800662
  H   -1.71939998928685      1.28288878358803     -0.37084601310701
  C   0.31806787594682      1.16625794726500      1.85199447340406
  H   -0.26446239498581      2.05335980266421      1.59055580152073
  H   0.25282310957570      1.05711698476677      2.93998262115721
  H   1.37046991519476      1.35294132537834      1.58871496383290
  C   0.32721722393411     -1.35311975679633      1.78568918662482
  H   1.38482296057410     -1.50979507411636      1.52100087975669
  H   -0.23041994215692     -2.23917989110105      1.47166986959614
  H   0.25868743548964     -1.30513084603601      2.87841302024091
