16
Coordinates from ORCA-job run
  C   -0.28562357523707     -0.11610520897207     -0.44757265561959
  C   -0.02529838495979     -0.02070816394543      1.04162571967304
  Br  1.48200276334377     -0.11840232334885     -1.44956157122030
  H   -2.47202805807445      1.29870640501721      2.04096745904960
  H   -1.00979575853299      0.25616340716453      1.50583777027702
  H   0.59095837179271      0.87181615774520      1.19726621438685
  C   -0.88081546235301     -1.40050031695246     -0.81388102110432
  N   -1.38429261503628     -2.42343491927143     -1.10220510988646
  C   0.60455728560365     -1.24284433901159      1.68470623934020
  H   0.73855432480671     -1.05864874555149      2.75407393564164
  H   -0.04184286300754     -2.11858079644129      1.58209764065951
  H   1.58083422894549     -1.48399775493299      1.25224869616733
  C   -1.15790187201895      1.05566120622357     -0.93436020859211
  H   -2.14530913732476      0.68618132541593     -1.21805810030079
  H   -1.32905758116784      1.73532136461755     -0.09489896564146
  H   -0.71211166677963      1.56764270224363     -1.78667604283014
