14
Coordinates from ORCA-job run
  C   0.52482321054961     -0.08709916424978      0.03166538267815
  H   1.89265306920123      1.52886310002724     -0.29322563354208
  F   -1.23023889599354      0.35397396462798      0.17710342603025
  F   2.25506010224623     -0.56692460454052     -0.31113658373981
  C   0.83699252877253      1.37726586338247     -0.07396082361163
  H   0.26363992090210     -0.62981772374209     -0.85542512492273
  H   0.52639583768108      1.90627954282966      0.82291534155054
  C   0.60087151498716     -0.74688446486788      1.38441867058101
  H   1.42881763372462     -0.31675027764410      1.95178499296102
  H   -0.33654248370941     -0.62055141728749      1.92163026617567
  H   0.82897099135245     -1.80434871572622      1.25346190972850
  N   0.09335025323195      2.03928930545257     -1.18190846851505
  O   -0.36283718804995      3.16271664831260     -0.96634324547956
  O   0.05345350510392      1.47617794342555     -2.27055010989433
