14
Coordinates from ORCA-job run
  C   -0.31692584144357     -0.06363685217860     -0.18998575779077
  C   0.12966642815229     -0.14390233440998      1.10898068334266
  F   1.31799006004386      1.36620306213266     -0.92102811972901
  Br  -3.05932925493644     -0.29391304186490      1.84789606552666
  H   -1.18015291182615     -0.15672739429043      1.08821635478720
  H   -0.54448286784970      0.92271910437833     -0.56232564822504
  C   -0.59607468530691     -1.23748536286532     -1.05061666302430
  H   0.10445612845627     -1.15474703187153     -1.88631829961811
  H   -0.43377924041471     -2.18283576030483     -0.52982393409689
  H   -1.61544733516705     -1.20410692636601     -1.44078752780885
  N   0.72911105597089      0.99236476577743      1.67117340040094
  H   0.15762854977705      1.46753508567080      2.35542185141258
  H   1.01261719321146      1.55652657432752      0.85392221129146
  H   0.32156272133274     -1.12145388813516      1.55577538353148
