17
Coordinates from ORCA-job run
  C   1.18562872824371     -0.07546240393399      0.05613531730779
  H   1.69706133804458      1.91470643054539      0.74486514635885
  F   -1.63158830889915     -0.01888740484088      0.11555367564844
  Br  3.21816449564176     -0.12546007711184     -0.11498118818980
  C   0.89388073652138      1.42886919624765      0.18871501328685
  H   0.80719453218705      1.87692874066864     -0.79934866340149
  C   0.62967068334627     -0.64969669172634     -1.22902700422152
  H   -0.46371937011719     -0.57739846654089     -1.06792115011553
  H   0.95845886686229     -0.06871169660562     -2.09563501382211
  H   0.95193249268640     -1.68696433581083     -1.35536538995857
  C   0.79767958130789     -0.90707035530687      1.25626841464881
  H   1.14182035617949     -1.93488973127726      1.11078247464563
  H   1.20708797588605     -0.51270801785337      2.18642366324947
  H   -0.30013412709947     -0.85370954273361      1.24916220859053
  N   -0.33054148012000      1.87370931181557      0.93701495319358
  O   -1.04722077154288      2.69271082312635      0.37421416192457
  O   -0.39656572912822      1.57325422133788      2.12381338085449
