12
Coordinates from ORCA-job run
  C   0.34374961850193      0.04289505240698     -0.22921068490231
  H   1.76486561892096      1.67606528881061     -0.19106542403382
  Br  -0.96474733178430     -0.50937149170967      1.14507183096075
  H   3.08001037641198     -0.58483603416362      1.33097569185216
  C   0.67419719624279      1.55110734373779     -0.24215509262036
  H   2.43499811227000     -0.55083420721501      0.94924264548757
  H   0.36174200023883      1.99453490749587     -1.19870014607985
  C   -0.04028839507856     -0.47251602742427     -1.47491065995716
  N   -0.26547123705917     -0.89629328630643     -2.56426638416818
  N   0.12844790596478      2.40485118848724      0.82000652463965
  H   0.42790275475129      2.01147918153051      1.70562204755130
  H   -0.87867661938055      2.28706808435002      0.81485965127025
