16
Coordinates from ORCA-job run
  C   0.47581976584542     -0.08552942900027      0.08039555939267
  H   1.55436685577138      1.68587803818859      0.60483031861428
  F   -1.32007993893263     -0.00067553376902      0.54936661890565
  F   2.07704512839556     -0.05190686335638     -0.61147715093227
  C   0.59291159058388      1.40913344289005      0.18593137960560
  H   0.08725539530636     -0.50327523610429     -0.82673314460144
  C   0.84228658185741     -0.94735947380874      1.25846026138449
  H   1.56392786770813     -1.69742357645385      0.93559151333172
  H   1.30611997703616     -0.34353263654805      2.04088808259205
  H   -0.05498495321306     -1.40955992294285      1.65850769413426
  N   -0.42877365131371      2.10142900821643      1.04902362123735
  O   -1.28460563033477      2.80014865876099      0.52590438017095
  O   -0.24380522629945      1.96669311174335      2.25267745895324
  N   0.53835786648422      2.07785833081604     -1.15090521222402
  O   1.15635009536906      3.14027866188433     -1.23197291033160
  O   -0.12253172426393      1.57253341948368     -2.04767847023297
