15
Coordinates from ORCA-job run
  C   0.46339960517207      0.05632484864802      0.09347433105973
  H   1.70568076157776      1.76577485661609      0.05833502578299
  Cl  -1.47796824252407     -0.20617338364470      0.32951822233773
  H   2.33160789310913     -0.21071212681959      0.13657270408935
  C   0.63357162158010      1.58159474129691      0.00518171172877
  H   0.61988893176506     -0.51578867041545     -0.80963376974589
  N   1.13660269601604     -0.61075061711500      1.21105653134674
  O   1.27690633554657      0.08040589317903      2.26338400591572
  O   1.04626472369906     -1.85818302919724      1.24463023104560
  N   0.02812211147124      2.36750479895729      1.07390795750418
  H   0.43267711332814      1.99856444768832      1.93198772773968
  H   -0.95667238689341      2.12518954761738      1.11217007084353
  N   0.16714581140743      1.98880849544718     -1.31505592210661
  H   0.17348558933682      3.00374531682662     -1.31167256314080
  H   -0.80496256459192      1.70633488091514     -1.39576626440078
