15
Coordinates from ORCA-job run
  C   -0.18120355781747      0.07879915250262     -0.31171626290686
  C   0.03785663430177      0.16636201241507      1.03760538999712
  F   1.57953742421830     -1.12045491758501     -0.78809602081376
  Br  -2.92939160312465     -0.01516550521056      2.14465589188348
  H   -1.64475401585317     -0.03325496018872      1.27288388572107
  H   -0.21809392784664      0.95816884616750     -0.94082692537398
  N   -0.75782824750411     -1.08073394741525     -0.96658419116033
  O   -0.98665336783169     -0.95402045614419     -2.17141201461798
  O   -1.07484392415529     -2.06623411924739     -0.30136217895653
  N   0.17562646899028      1.47417512715555      1.60110562877890
  H   0.90126934040243      1.40695860015246      2.30499839002711
  H   -0.68144401399428      1.77345694787062      2.05336074487222
  N   0.65823385853801     -0.90556536702615      1.69248255951638
  H   1.08056103767362     -1.45033769300713      0.92449748220125
  H   0.04679789400290     -1.44466372043943      2.29268762083187
