16
Coordinates from ORCA-job run
  C   0.73158135804701     -0.00561365439427      0.05973140149351
  H   1.66182047445534      1.86271361511418     -0.20909228986040
  F   -0.98597342944849     -0.15029553733341     -0.20551775086753
  F   2.41275879977120      0.02655289792789      0.50281633090484
  C   0.65796282426951      1.50958132911102      0.02140801467297
  H   0.94495734128055     -0.53910281866257     -0.84660055268583
  N   0.53065555990839     -0.88988950578846      1.23804174419470
  O   0.30540991892774     -0.39966337193912      2.33882330061723
  O   0.61581013769530     -2.09157664455106      1.01481310575757
  C   0.10652536982125      2.20037198353601      1.24342452255444
  H   -0.89144127928169      1.83009616695295      1.46206556923632
  H   0.76118352778387      1.98524818845420      2.08521034551413
  H   0.06734853215656      3.27734383315849      1.07145768278017
  N   -0.13145557848115      1.89180040819542     -1.21232106533463
  O   -1.09305154434050      2.64672578876473     -1.10736523831484
  O   0.30407798743510      1.46763732145403     -2.28069512066263
