17
Coordinates from ORCA-job run
  C   -0.07947090113809      0.22951976218130     -0.34236964427594
  C   -0.05145212746001      0.21997646568751      1.24007939397820
  Cl  1.49126387546069      0.66354601140431     -1.09433610438544
  H   -2.66879523782674      0.07646210994244      1.74945838293591
  H   -0.99592162840612      0.76500564828473      1.51317189324320
  N   -0.36004442509200     -1.19069301788521     -0.82173921955700
  O   -1.46081490716015     -1.41792149305351     -1.31236260767785
  O   0.52345636940296     -2.02574741127821     -0.65016240353769
  C   -1.14805016047545      1.16214673958597     -0.85228186907398
  H   -1.23019977096594      1.11750816975079     -1.93891215769590
  H   -2.08959254561489      0.89102640738381     -0.36729205100362
  H   -0.87572863639820      2.17602971409908     -0.54987319550061
  N   -0.25797936176380     -1.01595659294111      1.93714472799036
  H   0.18800359945838     -1.80815071817746      1.49782906662293
  H   -1.29119600803097     -1.09420024240374      1.98694356838612
  C   1.11206018526131      0.94358234448410      1.75102588242234
  N   2.01244168074897      1.54731610293520      2.20720633712891
