19
Coordinates from ORCA-job run
  C   -0.25927859607546      0.02835439840592     -0.31237376028135
  C   -0.19654856543317      0.07116267058905      1.14927669222280
  Br  1.70362640648198      0.01407939320324     -1.23898699162635
  F   -2.61508591347380     -0.62426309336383      1.57398469689328
  H   -1.43278956154220     -0.08627487665120      1.39327811941623
  C   -0.95498080532043     -1.19270148763159     -0.89270221020879
  H   -0.35755654578790     -2.08618810513904     -0.71161505032021
  H   -1.90202212763910     -1.26703378427196     -0.34671855323785
  H   -1.11133564886625     -1.08625253180943     -1.96706607265720
  C   0.40318270470013      1.33574920313802      1.72848130226382
  H   -0.07485604143068      2.23592947684054      1.33220520116307
  H   0.27159700681305      1.34485374907037      2.81524099598433
  H   1.48001668757420      1.40360927122565      1.51508131605656
  C   0.37380776431948     -1.18940672522189      1.77694733593033
  H   1.39538820635490     -1.40033470259797      1.43020656919131
  H   0.39595845270309     -1.06667122097432      2.86406647302551
  H   -0.26890863139468     -2.04680880774977      1.57364811820021
  C   -0.80218690969421      1.25676457787632     -0.88493754315648
  N   -1.27658788228891      2.22986259506187     -1.34628663885921
