13
Coordinates from ORCA-job run
  C   0.49726805828889     -0.05466803739597      0.05360607783602
  H   1.69584253489164      1.72849088353630      0.16091715580443
  F   -1.14004811713270     -0.07083107437186      0.46875812303745
  H   2.26549076296853     -0.19838359919202     -0.54020917533715
  C   0.64618738922503      1.46234706564419      0.05552699508999
  H   0.34595473288740     -0.56696188094228     -0.87692905192986
  H   0.86539853576394     -0.62179529415206      0.89152183795911
  C   -0.06171073971137      2.07968595710784      1.18885987910059
  N   -0.51636306456081      2.66900865689677      2.09816826886615
  C   0.11672968025967      2.02163430380414     -1.26265433028976
  H   0.73605471968862      1.61643529020697     -2.06724922923705
  H   -0.91527201413659      1.69343670685816     -1.39161519453546
  H   0.15773752156774      3.11413102199981     -1.29156135636447
