15
Coordinates from ORCA-job run
  C   -0.11588601457868     -0.00990633143627     -0.27269184516890
  C   -0.12960628155476      0.08381997162040      1.23910683491061
  F   1.23082028027157     -0.10711510186695     -0.70935075960471
  Br  -3.92535498167967     -0.21875827153147      0.70473833577638
  H   -1.18380465755628      0.12345882590860      1.52812480077291
  H   -0.60342642009710     -0.94077346993245     -0.57389318903440
  H   0.26760040112447     -0.85843406356269      1.63054510612731
  C   -0.77774514410043      1.14564981060696     -0.98350030202366
  H   -0.68157705680092      1.01978391907634     -2.06507986842209
  H   -1.83679082802389      1.14697360354020     -0.71478699374460
  H   -0.32328956551342      2.10015147208901     -0.70739912919725
  C   0.67800351403909      1.26794359795708      1.79711069375610
  H   0.07710741063364      1.87640810550729      2.47642322766442
  H   1.55825043676453      0.92602552043990      2.34696571526013
  H   1.04273890707187      1.92265241158410      1.00357737292775
