12
Coordinates from ORCA-job run
  C   0.59622715243029     -0.01759860217732     -0.02622856006114
  H   1.76356277565326      1.73814230371711     -0.02012977536680
  F   -1.15634605917809      0.01524943023000     -0.11482832621447
  F   2.42967958636976     -0.22497744202030      0.11209971049677
  C   0.70387039488115      1.49241399392787     -0.01442382632549
  H   0.67226538608542     -0.51334128544127     -0.97516545587824
  H   0.55186202045048     -0.57251207924272      0.88982497441568
  C   0.11193899742947      2.03539866742384      1.22985817900868
  N   -0.32949929553001      2.55680944034931      2.18597033509087
  N   0.05443339908465      2.04239917574062     -1.20808834219262
  H   -0.04147720330467      3.04659285663603     -1.10854673336847
  H   -0.87062715437172      1.62274354085684     -1.19217217960477
