18
Coordinates from ORCA-job run
  C   0.04903668796787      0.08056882677922     -0.46520982766918
  C   -0.37514210979254      0.02163420159801      1.01398674160454
  Cl  1.82489019891552      0.16673860855293     -0.58778988522858
  Br  -2.64870915806987      0.67911593065643      3.63977357757430
  H   -1.46884603641277     -0.03164638746328      0.98856487112023
  N   -0.43311430025263     -1.20505246604240     -1.13871600590067
  O   -1.63742319110746     -1.22521764082693     -1.38766717261643
  O   0.34316864536135     -2.13266933161934     -1.32698155249390
  N   -0.51458693033317      1.17579265746731     -1.19416888607727
  H   -0.39880705198598      1.96418946149945     -0.55765814092265
  H   -1.51197253326883      0.99481713331477     -1.26217510590162
  N   -0.06341468176956      1.32798859226133      1.57714704460763
  H   0.84588271211808      1.29332132446155      2.02356761696740
  H   -0.76502232411193      1.48450439849184      2.30569475511316
  C   0.15985024473949     -1.20606030490531      1.76799773698357
  H   0.85285457085453     -1.80358314502006      1.17131865035992
  H   0.67529128303056     -0.88627682336550      2.67469819775354
  H   -0.67031602588272     -1.83682503584002      2.08800738472601
