16
Coordinates from ORCA-job run
  C   -0.27799451969338      0.06974620201772     -0.36221681542287
  C   0.03132116561544      0.24769596498787      0.97095843758934
  F   1.80821553787059     -1.05685011442830     -0.69216325038037
  Br  -2.87112367895575     -0.12415426107025      2.05774498400018
  H   -1.27753515130892      0.08393981208650      1.03192805435020
  H   -0.42842424511480      0.98769773809068     -0.93151218715209
  C   -0.73906969794919     -1.19790378318754     -0.97447900164218
  H   -0.67822750112727     -2.01867150842033     -0.26383948506824
  H   -1.77192506897882     -1.08342890056791     -1.32658664183860
  H   -0.06069563555005     -1.41589831638696     -1.79628134893337
  N   0.70702547704528     -0.78400447232824      1.64885779100170
  H   1.22517005628869     -1.27308264105760      0.88898809402447
  H   0.10765661531795     -1.34627263463814      2.23818157323068
  N   0.16910445254405      1.59852478619630      1.45624843749447
  H   1.03365383486893      1.60439167385335      1.98615328476463
  H   -0.58547164087273      1.76930045485282      2.11682807398204
