14
Coordinates from ORCA-job run
  C   -0.27744087902892      0.15790658298303     -0.12078024205474
  C   -0.37117586829473     -0.45604850213133      1.23702625302781
  Br  2.11018255324266      1.48811602361306      0.34189820658800
  Cl  -3.81342374180127      1.37626287459198      0.90997553325959
  H   -1.38409856812969     -0.86411593631117      1.33289836583477
  H   0.44191871259030     -0.20383378371844     -0.84177385985030
  H   -0.31558349453640      0.36087756027084      1.95740551795560
  C   0.70579218236432     -1.51485852018294      1.50610071186993
  H   0.25871985137516     -2.49318635655002      1.69997435275785
  H   1.39204972789162     -1.60959451880750      0.66361561367790
  H   1.31951026591298     -1.23723992631168      2.36207569225367
  N   -1.21810651225226      0.94105343240470     -0.53667193054481
  H   -2.05608083175503      1.19097754988373      0.05396882491550
  H   -1.16261339757874      1.33769352026575     -1.46239303969072
