18
Coordinates from ORCA-job run
  C   -0.11212970680732      0.04058517453266     -0.39215825987862
  C   -0.12812354760324      0.02285266206802      1.07172629658660
  F   1.25515093244009      0.09784832177588     -0.99550129855517
  H   -2.57642474559685     -0.30559214878245      1.48011887185029
  H   -1.59964094497991     -0.10056621909360      1.34490310809817
  H   0.23210891271351      0.96816777813475      1.49529821172526
  C   -0.79860109216843      1.28179799050397     -0.93069099005097
  H   -0.72546299680234      1.32747367325477     -2.02270784933412
  H   -1.85237470489245      1.27018554502845     -0.63263906657371
  H   -0.32446722397948      2.17435863389423     -0.51293598743840
  C   0.43959210518590     -1.20353101137883      1.75311258138544
  H   1.34602919593857     -1.61484480985363      1.28161944351977
  H   0.69653783264293     -0.97527445937945      2.79449295549724
  H   -0.30744648740168     -2.01488078187908      1.79386275709913
  C   -0.70982308720662     -1.22048957298778     -0.98779165121310
  H   -0.10487542487853     -2.08823654789266     -0.71567720046760
  H   -1.72240509310578     -1.36023797243145     -0.59330436995874
  H   -0.74184392349837     -1.15534625551381     -2.08057755229146
