13
Coordinates from ORCA-job run
  C   -0.14456089222746      0.03193341331717     -0.36448941909472
  C   -0.09608363736876     -0.02396174102335      1.13188382956112
  F   1.14389475818209      0.11662948726515     -0.95999460857840
  H   -2.60788596672530     -0.20114856020087      1.54867725559429
  H   -1.32450141952077     -0.06675858424149      1.43954473764898
  H   -0.66264794340691      0.94735679174838     -0.67133309495184
  H   0.33324266022814     -0.96569257192956      1.48858408523025
  C   -0.84902842886340     -1.17961094064471     -0.92554392908473
  H   -0.28520206696372     -2.08265555436947     -0.67474750656336
  H   -1.84089771843327     -1.23640358494268     -0.46570131378344
  H   -0.93726401503909     -1.11284051312424     -2.01319112676805
  C   0.56269217601168      1.09815705312526      1.74463163612600
  N   1.06989249412676      2.01235530502040      2.29016945466389
