17
Coordinates from ORCA-job run
  C   -0.33749861759761      0.05332898380483     -0.31253196976848
  C   0.07775724611676      0.19746577917129      0.98590083013983
  F   1.82232725597839     -0.90267146044136     -0.80876809518409
  Br  -2.73336366188649     -0.13477414818808      2.28734155351384
  H   -1.27867992992451      0.09178793025835      1.32587494374355
  H   -0.56473769013103      0.96600487286199     -0.86977347113893
  C   -0.76641510277031     -1.21475538783867     -0.94750934997248
  H   -0.62601535276421     -2.05531251395730     -0.27189220488491
  H   -1.81922818772228     -1.14905287996191     -1.25072830852364
  H   -0.11658394625370     -1.37038754790284     -1.80718633854733
  N   0.75475043249302     -0.89661952064808      1.61877430835360
  H   1.31313613079010     -1.25555348819575      0.81487271474322
  H   0.10021190277621     -1.58653213502614      1.96923539220331
  C   0.47836497141074      1.55149262688765      1.50858935902273
  H   -0.05898747492853      2.36469296268606      1.01163554690740
  H   0.28494545592689      1.59967642727979      2.58247845929025
  H   1.55312656848656      1.66479949921018      1.34274663010211
