16
Coordinates from ORCA-job run
  C   -0.31218146959180     -0.01625628528513     -0.02306702926953
  C   -0.38226258196975     -0.23939091453442      1.39219743417294
  Cl  -0.21638240349048      0.42335232259198     -3.72662301874887
  F   -2.56337283549739      0.98268989478469      1.62836327562172
  H   -1.69547329545033      0.21430280240339      1.58126392933249
  H   -0.13335720581878     -1.27007639919059      1.65613664164085
  N   -0.72936997959877      1.16004934135044     -0.52264557630477
  H   -0.76677077436358      1.24166353188703     -1.53660181693571
  H   -1.46186104961040      1.58216425937631      0.03734132710834
  C   0.29415170795702      0.79934611869889      2.28144849943933
  H   1.39093607359147      0.74332939896219      2.25823827496798
  H   -0.00035666151286      1.80605007703479      1.98553880867169
  H   -0.03081346439404      0.67125877526621      3.31797322230377
  N   0.07699887082596     -0.95582140820730     -0.89283735151226
  H   0.04910064246838     -0.74356178220503     -1.89594602915564
  H   0.66051442645535     -1.70059973293341     -0.55932059133234
