16
Coordinates from ORCA-job run
  C   0.50471185576109     -0.06092489323237      0.02487029567178
  H   1.58135413442151      1.70160634461246     -0.29557735934406
  Cl  -1.70121621466709     -0.23519573865895     -0.15363575055626
  F   2.53589036418257     -0.08815750694294     -0.01066281207960
  C   0.55684678077249      1.46075834249669     -0.02172412511948
  H   -0.11667766486614      1.80957502102456     -0.80668056804784
  C   0.75092680100164     -0.75170215266524     -1.22089468181230
  N   0.86702490049346     -1.30760883769621     -2.25161772892721
  C   0.59067633195767     -0.83514217859424      1.32526630129147
  H   1.59377682369570     -0.70584930735179      1.72039652552677
  H   -0.16473998170518     -0.48915588556006      2.02937423941326
  H   0.40788168298900     -1.89178460339578      1.12775862588286
  C   0.19448800878009      2.11984991639120      1.30044493434106
  H   -0.81953726689283      1.85647438616419      1.60680393104301
  H   0.89251042278150      1.82360967499115      2.08682257886922
  H   0.24894302129456      3.20843741841732      1.19948559384733
