13
Coordinates from ORCA-job run
  C   0.66964232303787     -0.03811237716933     -0.00433785352908
  H   1.61410528153615      1.81313921854586      0.46005060101152
  F   -1.03035348931250     -0.16971128701999     -0.08469389882806
  F   2.36257154202996     -0.24343430235809      0.02678102644636
  C   0.68456223153040      1.46220736996107      0.02214325955161
  H   -0.16909248047940      1.81494425173382      0.59234975409418
  H   0.60319996836647      1.80731523768364     -1.00614070047826
  N   0.70116868966508     -0.76496945714894     -1.33882087666510
  O   0.77724692825363     -0.05319460039841     -2.33495206000600
  O   0.65315190020171     -1.98257538078180     -1.35181365680744
  N   0.61532006779839     -0.74130905040968      1.33189785162045
  O   0.61348432195300      0.00435221340719      2.30743947343125
  O   0.58098271541926     -1.95884183604534      1.37870708015860
