18
Coordinates from ORCA-job run
  C   -0.14195451743099      0.01322803905473     -0.28529091132206
  C   -0.17907325929932     -0.08116557623210      1.17919236764831
  F   1.17851873876603     -0.01349048993790     -0.86716042847695
  H   -2.45795096798259      0.42173836408287      1.82482809569221
  H   -1.53818226391260      0.01261363256782      1.49491001313102
  C   -0.85161713826614      1.21475365546161     -0.85270086194983
  H   -0.98238766280410      1.11450582732028     -1.93233871865062
  H   -1.82269397939773      1.32038060792754     -0.36219968127634
  H   -0.25127608232752      2.10162395022732     -0.65076619845735
  N   0.20214211285583      1.13815084924821      1.84786371919503
  H   -0.65172477314832      1.66005651025446      2.06925968402933
  H   0.82476512210805      1.72603852809154      1.30744724387875
  N   0.40839791601799     -1.27752243683757      1.74846084944442
  H   1.18664277876270     -1.61201416488711      1.19021269955890
  H   -0.28239004417025     -2.01890956406255      1.78223235113667
  N   -0.77911075935523     -1.24442641633027     -0.86288258309218
  O   -1.98807343136356     -1.20530647228448     -1.09855587869408
  O   -0.07634178905227     -2.24544484366440     -1.00323176179521
