13
Coordinates from ORCA-job run
  C   -0.18553318140284      0.07424841579059     -0.44297076299847
  C   -0.33765480232306     -0.04113676443379      1.02298817069125
  Br  1.81985637615872      0.14733869471230     -1.05416136163058
  F   -2.41642279193318     -0.61368208424853      2.25858006340137
  H   -1.51533333788815     -0.12543297201742      1.39413770265409
  H   0.08053835496628      0.85545792878844      1.50003276423835
  C   -0.73453666883901      1.32126058193160     -0.96986421989917
  N   -1.18552366010993      2.33231276229213     -1.36579688078256
  N   0.16404519488510     -1.31520152397165      1.50357944591034
  H   -0.54244113786753     -1.61728874493711      2.16821475126379
  H   1.05609131817659     -1.21182659512532      1.97030230707711
  C   -0.70979092218579     -1.07769325909183     -1.17171358067435
  N   -1.15402474163719     -1.98352643968941     -1.77470839925117
