13
Coordinates from ORCA-job run
  C   0.61702020266911      0.00819185539787      0.11062577519626
  H   1.79293860640466      1.71225017265448     -0.08309309518926
  Cl  -1.65375458495595     -0.15025289115519      0.13693843525149
  F   2.62196708256031     -0.21616651766834     -0.31684871950337
  C   0.72476776254179      1.51515157070946     -0.01204310670494
  H   0.57471243001412     -0.60872814557977     -0.76796664545373
  H   0.24667330255420      1.82360032117383     -0.94359039772754
  N   0.87831729568258     -0.53271770801976      1.39355562015362
  H   1.89711999425732     -0.60530660818542      1.32509499785071
  H   0.49093648609307     -1.46688734555775      1.43246813480787
  N   0.15283550269130      2.28265439011365      1.08956495208699
  H   0.55370694919755      1.90289745788405      1.94052508244802
  H   -0.82839102971011      2.02612344823289      1.13166896678391
