15
Coordinates from ORCA-job run
  C   -0.31357696945616     -0.08107640217056     -0.26621312567499
  C   -0.19991228926624      0.15811035788006      1.16415752393433
  Cl  1.41811979528127     -0.41060213437615     -1.18004428651796
  H   -2.44380814388867     -0.58071264337893      1.72786700676097
  H   -1.44065055410601      0.06186165364353      1.47339262449676
  H   0.23472279866631      1.12160307901200      1.42669668283603
  N   -0.80712368786286      1.21169750676229     -0.90987335356003
  O   -0.09704870355655      2.20615496473758     -0.77856783748970
  O   -1.91272022876607      1.19730886561067     -1.44406632579740
  N   0.30155199831245     -0.94458286110562      1.95261130733741
  H   1.00830473252913     -1.46178134068384      1.44155832366877
  H   -0.48747448082416     -1.56074779266768      2.15153054465678
  N   -1.13867291887800     -1.15622429787953     -0.66200858459527
  H   -1.91435299451009     -1.17255651008922      0.02415500404424
  H   -0.61767835367435     -2.01586244529461     -0.55675550409993
