15
Coordinates from ORCA-job run
  C   1.06087246681330     -0.02595721769655     -0.11761962485983
  H   0.98740358579940      1.98463226217713      0.68396231880980
  F   -1.62538090970859     -0.93072524243478     -0.04610917411848
  Br  3.16612702306408      0.25663447505473     -0.32701153686852
  C   0.44006068861489      1.36476154194090     -0.01953987224786
  H   -0.59854294540995      1.20385132802220      0.27137419958126
  N   0.53120885899798     -0.72915668390426     -1.16223964900459
  H   -0.67513967302643     -0.82677233946090     -0.72678900890574
  H   0.90482296111825     -1.67620778916163     -1.12254733326238
  N   0.99118344337180     -0.56737937094896      1.24866538435699
  H   1.65357574245246     -1.33136498522368      1.31964554028303
  H   0.04880284460275     -0.96218538383589      1.27512234139040
  N   0.40185530025843      2.08337267697351     -1.31879672304578
  O   1.37350922957865      2.78217427296113     -1.61064697312239
  O   -0.60256861652701      1.95304245553702     -2.01627988898591
