16
Coordinates from ORCA-job run
  C   -0.20026484169892     -0.00423362462211     -0.26879900580435
  C   -0.17135583028875     -0.07752575106955      1.25530618464396
  F   1.09873379498374     -0.17364025267800     -0.75561593227521
  Cl  -3.59428758392497      0.87730330414436      1.40282938271555
  H   -1.20670336182194     -0.11449152299961      1.60683091318103
  H   0.22021839500128      0.89201682792349      1.57997890279916
  N   -0.93787595454939     -1.20380734450496     -0.86346891672382
  O   -1.76543621648032     -1.00818912509830     -1.74702051949161
  O   -0.60941668348959     -2.31475526434631     -0.44545831532730
  C   -0.78434101304360      1.27278771001951     -0.79012785744766
  H   -0.80695605821800      1.27302583401271     -1.87913997651165
  H   -1.79380527131987      1.38786016266828     -0.38493743547026
  H   -0.15813742820949      2.09477909805544     -0.43709005004628
  N   0.63944792896125     -1.12374764682254      1.86045315366854
  H   1.54130723621371     -1.13708527325323      1.39854804590996
  H   0.20748288788487     -2.01641713142920      1.66333142617989
