15
Coordinates from ORCA-job run
  C   -0.31285703115529      0.08424919382278     -0.26352346659272
  C   -0.19809286820519     -0.16436374435037      1.16510476826918
  Cl  1.41969356739701      0.41328791359186     -1.17778771133249
  H   -2.43743017033109      0.58712359131346      1.73357862077929
  H   -1.43665116474334     -0.06111688995469      1.47829932579163
  H   0.23008251281375     -1.13239050984164      1.42117168298681
  N   -0.81051692362181     -1.20305114771106     -0.91614711485542
  O   -1.91192807765942     -1.18023587623073     -1.45844898825000
  O   -0.10643808039748     -2.20187899198872     -0.78525403616687
  N   0.31330134384921      0.93011753756655      1.95892146048872
  H   -0.46978100482110      1.55294479750723      2.16019241738228
  H   1.02444056535407      1.44307925044090      1.44959214208285
  N   -1.13432385350371      1.16465402478076     -0.65083447799515
  H   -0.60824829951532      2.02163062409525     -0.55044070848204
  H   -1.90535051546029      1.18409022695841      0.04075608589393
