17
Coordinates from ORCA-job run
  C   -0.44623195699928     -0.00544065498448     -0.22877832940531
  C   -0.14791528498274      0.03292970203700      1.14265475101417
  Cl  1.59218263096900     -0.35975315921283     -1.39526496523586
  Cl  -2.84154119111309      0.08283834060770      2.31296576022784
  H   -1.47216485941623      0.12984124291740      1.49201802646053
  C   -0.77712724186682      1.26035247394392     -0.82466983378386
  N   -1.08381095143303      2.31059347682469     -1.26441016627646
  N   0.53508272311050      1.14919304154853      1.68802508013335
  H   0.29364740772315      1.22513820214185      2.66876445132095
  H   0.30846993101846      2.01039444537515      1.20672637451686
  N   0.22961947516593     -1.16479204415585      1.83282769006394
  H   1.05984229127120     -1.52794589222786      1.36712642028694
  H   -0.51196696521448     -1.85137992972551      1.78129149402923
  C   -1.15853511579271     -1.19760950135407     -0.80324147315761
  H   -0.62264674494795     -2.11045004268542     -0.54649663602375
  H   -2.18035097670203     -1.24430159347356     -0.40476290862565
  H   -1.19172317078989     -1.12206810757665     -1.88875573554531
