14
Coordinates from ORCA-job run
  C   -0.44668871894004      0.18855390467817     -0.15927244518320
  C   0.23227616592584      0.12282177934059      1.01028363428541
  F   1.85339841000855     -2.01257052306627     -0.40069802294652
  F   -2.77388222507699      0.39918331257580      1.61414221651507
  H   -1.91754093181552      0.26224520522208      1.25627140290662
  H   -0.53616296814198     -0.73865322310025     -0.72206249251302
  H   0.44330513662503      1.07251239435022      1.52376280380490
  C   -0.94301096950193      1.46662856458201     -0.77288884429786
  H   -0.44401074851890      1.66379082447914     -1.72838050585240
  H   -2.02112396969743      1.44815672447794     -0.96484668029694
  H   -0.74385736584313      2.31343877854990     -0.10854302379788
  N   0.77685458005155     -1.03537154067915      1.59339170023763
  H   1.42749855061266     -1.46772333236989      0.74034313420351
  H   0.04815505431234     -1.74486286904028      1.58826712293465
