17
Coordinates from ORCA-job run
  C   -0.10073375209424      0.01361721125629     -0.38679807840496
  C   -0.21360621839617      0.05756717410696      1.11015887156077
  F   1.19095399030712     -0.13569032973643     -0.83770821939561
  H   -2.66632740727247     -1.19849657257410      2.01971994202056
  H   -1.30185177296333     -0.03216151993015      1.34161417356551
  H   -0.71807048511995     -0.77952943942124     -0.81309713337859
  C   0.37161019704528      1.33018093527146      1.70948638547599
  H   -0.15668787918498      2.22663181084205      1.37229604053484
  H   0.26617543806113      1.28135879736831      2.79622844714539
  H   1.43341549258782      1.44660862279808      1.46831244939118
  C   0.40193181630870     -1.22185715170892      1.69834394822185
  H   0.88695014557178     -1.85145029547004      0.94725687268266
  H   1.15630893486849     -0.98533449251507      2.45520920975743
  H   -0.42626994652403     -1.77896300771584      2.15515814886987
  N   -0.61039052331586      1.30110216899979     -0.99182707688885
  O   0.20930511709980      2.15255920208534     -1.32606480795804
  O   -1.83008314697906      1.41316688634352     -1.05929917320002
