18
Coordinates from ORCA-job run
  C   -0.24740506463764      0.04396854863395     -0.31250406343833
  C   -0.19224873226244     -0.03390654924629      1.14745487418425
  F   1.06661023033251      0.27324462805582     -0.96141876868187
  H   -2.50762998041172     -0.14047291099462      1.99273122255539
  H   -1.49412037520432     -0.11951262825959      1.54824242841659
  C   -0.81160899636100     -1.19014298215076     -0.98954985864480
  H   -0.13206492935427     -2.02789802071326     -0.82989932347193
  H   -1.78681775784465     -1.42396396727821     -0.55140993008958
  H   -0.91623810011023     -1.02571724524366     -2.06444723910759
  N   0.26363616607518      1.18362959346051      1.80409450399130
  H   -0.55116933730753      1.75561011263126      2.02195197536293
  H   0.87755990588695      1.72446190565286      1.20485070660863
  C   0.45114416857677     -1.27322820302544      1.72524260404641
  H   1.51247413067088     -1.39171610113947      1.45805691399917
  H   0.38668914651886     -1.19405194789484      2.81421512380523
  H   -0.08456937007501     -2.18535511001289      1.43660151928777
  C   -1.01643422375091      1.23978578882722     -0.71337367308947
  N   -1.64450688074140      2.17426508869741     -1.05100901573413
