14
Coordinates from ORCA-job run
  C   -0.11634607658441      0.12191299087520     -0.39524342714357
  C   -0.01579948255922      0.09479399210219      1.04644939941383
  Cl  1.61731170366225      0.02907781952190     -1.35580497073523
  H   -2.32460804581304     -0.59136583066411      1.62467857528971
  H   -1.27713538066152     -0.11451228447014      1.35347964872159
  H   -0.55711776280324     -0.80729609951347     -0.76708228893340
  H   0.32067706072553      1.04265681150344      1.48081395254951
  C   -0.82948660872672      1.33148223258930     -0.94353709353913
  H   -0.85345152591807      1.33670952744239     -2.03492431014010
  H   -1.85673639756093      1.30475923926927     -0.55931004012957
  H   -0.34764331018911      2.24975407065504     -0.59968803267340
  N   0.60053944337600     -1.06354959784944      1.66564944432890
  H   -0.13028204956362     -1.76614296450943      1.78140980909593
  H   1.31569843261611     -1.44601990695216      1.05629933389495
