16
Coordinates from ORCA-job run
  C   -0.17495989365760      0.02515796572292     -0.34716869617371
  C   -0.08160052284829     -0.17093585304428      1.15802426688446
  Cl  1.46717893857327      0.22358043746139     -1.06726543763871
  Cl  -3.13367896680274      1.74798409617862      1.54209660752834
  H   -1.10462331834048     -0.38044040436022      1.49163600545455
  H   0.54624813093572     -1.03901760288537      1.36464315132395
  N   -0.66882509451888     -1.35105840187871     -0.92779798672973
  O   -1.67497201550853     -1.35736327627970     -1.62028068958379
  O   -0.01670607382023     -2.34104627430240     -0.60382677987025
  N   -1.01842308945461      1.04511295196221     -0.81052753498724
  H   -0.50849451025550      1.89774914479412     -0.98130204043479
  H   -1.77947303916945      1.23018525833027     -0.14232784027200
  C   0.41085071897660      1.07554653369438      1.88027367102472
  H   -0.31417307440061      1.88068922860335      1.76721921837158
  H   0.49557653563027      0.86622593440430      2.94952586102672
  H   1.39153527466110      1.39156026159911      1.51594822407591
