17
Coordinates from ORCA-job run
  C   -0.17360000974060      0.04418446359086     -0.36828626465503
  C   -0.21260271582948     -0.05899849319968      1.09234063686013
  Cl  1.58160413878955      0.06239919593666     -1.14014413474465
  H   -2.71515682019898      0.12821783031861      1.72085399717564
  H   -1.41081375297405     -0.00191258391320      1.36685142442971
  H   0.16001850632728      0.88653514015617      1.49981839740807
  C   -0.87705758954634      1.28027452407288     -0.86085403417798
  H   -0.93786285868754      1.30943257252456     -1.94830325389669
  H   -1.88128461190879      1.28388035772751     -0.42061122031300
  H   -0.32479058951542      2.15183693688028     -0.50633535977654
  C   0.40865590489463     -1.25175379575972      1.78886064196929
  H   1.43732282587401     -1.44362917940832      1.46646107937786
  H   0.40873416025347     -1.06352720367812      2.86709218181147
  H   -0.17318873922217     -2.15916599892238      1.61772592198590
  N   -0.80279626718328     -1.19263175643654     -0.98759186280733
  O   -1.86766902656211     -1.04574760111592     -1.58711518003985
  O   -0.24352255477017     -2.27152440877365     -0.80883297060699
