10
Coordinates from ORCA-job run
  C   -0.23054143128904     -0.02557444582446     -0.27875120334375
  C   -0.07492177888247     -0.09429976499627      1.17712357322845
  Cl  1.36121934471299      0.21101171585947     -1.32977556403842
  F   -2.54621901958019      0.39348369334879      1.35152485711270
  H   -1.38308481578164      0.07473939925130      1.44423120071359
  H   -0.81946475382208      0.84145093426464     -0.57171392537418
  H   0.43768613683599      0.79054875384875      1.56239215162152
  H   0.40762725871538     -1.01485832478992      1.51124381313762
  C   -0.84637539068196     -1.22539896538452     -0.84043049473713
  N   -1.32505555022698     -2.19844299557777     -1.29141440832038
