11
Coordinates from ORCA-job run
  C   -0.01765136245379     -0.77895128619153     -0.40690185545320
  C   -0.26629722266578     -0.69179698860487      1.11562891819527
  Br  0.12879116269059     -2.64567227655358     -1.01606036965984
  Br  -3.19475667749653      0.58020761529109      2.37074455216742
  H   -0.26317054769128     -1.68977806050753      1.55746962005079
  H   0.94865594825570     -0.34621652726686     -0.66988161339335
  H   -1.25954841523262     -0.26051177031850      1.36299811626299
  C   -1.03728508156707     -0.12446371270688     -1.21777261044010
  N   -1.81205288547995      0.40714450417928     -1.92281914800160
  C   0.78872217515612      0.09847764244355      1.73760850240666
  N   1.67911290648459      0.71264086023582      2.19473588786497
