17
Coordinates from ORCA-job run
  C   -0.09089105054166      0.00046668240553     -0.40375978613295
  C   -0.14532549554715      0.13068353118998      1.10685062705539
  Br  1.79001723141210     -0.13527540117018     -1.02283884224390
  H   -2.82941702944993     -1.44941938258443      1.41175623337518
  H   -1.21547976052799      0.23560701986521      1.34637654280281
  H   0.40740691723766      1.02809248411021      1.40778345050756
  C   -0.90834716737374     -1.15922739193913     -0.92239746573261
  H   -0.37146729449654     -2.09068982336252     -0.74026360873669
  H   -1.84248103514812     -1.20654786576716     -0.32431375748252
  H   -1.09134176930475     -1.06162559184411     -1.99614403366804
  C   0.32611836138610     -1.11470393178872      1.84481880174885
  H   1.29609811584447     -1.47659576989085      1.49472587231372
  H   0.40763515215759     -0.88600538321768      2.91156212468026
  H   -0.45036752051751     -1.87770218967120      1.74339953447399
  N   -0.67565868498009      1.28476565106801     -1.01057918839138
  O   -0.04000596000759      1.94823018702267     -1.82383369187836
  O   -1.81325301014285      1.54246717557436     -0.62981281269131
