15
Coordinates from ORCA-job run
  C   -0.10299539863770     -0.09625919000568     -0.29346294548984
  C   -0.10032687360890     -0.11963711534071      1.16474280578194
  F   1.20851413819309      0.08072256909643     -0.94149951145065
  H   -2.54767884076538      0.30630598912995      1.45834069423252
  H   -1.56205304437172      0.03648502110815      1.38801559272544
  H   0.27611228752333     -1.06416295289313      1.57772449019903
  C   -0.70096839839354     -1.34359597620163     -0.90826426290603
  H   -0.15424845355943     -2.22625416692295     -0.56340876554039
  H   -1.74612090044850     -1.42591016946884     -0.59390628648851
  H   -0.65273422834028     -1.30995447258809     -2.00112061577095
  C   0.45606101718745      1.11610337133990      1.83203964420632
  H   -0.21826496944512      1.96905987543177      1.64731610613448
  H   0.49653947431018      0.98615505404649      2.92119034841161
  H   1.46062990491795      1.41752330903795      1.49786442787363
  H   -0.65614571456143      0.78880885423038     -0.64629172191863
