13
Coordinates from ORCA-job run
  C   -0.18468500821701     -0.03471021191421     -0.43120040024645
  C   -0.29703254139759      0.02563780870060      1.05196268685569
  Cl  1.61196464012791     -0.05005833371749     -1.04589080322049
  H   -2.34857779566575      0.57201964983662      2.36384783432396
  H   -1.43809580238908      0.04781582947481      1.42832465611977
  H   0.14897197272567     -0.88188979583205      1.47888782391081
  C   -0.75867747999063     -1.27189602908814     -0.96260682490886
  N   -1.22414309932087     -2.27770007164523     -1.35447141553655
  N   0.17845818480612      1.28664591270941      1.56340879975230
  H   1.05743618033086      1.18359049112672      2.05166564265738
  H   -0.55026797689278      1.57610139157631      2.22894627096969
  C   -0.78967073705872      1.12787631163687     -1.07999595831078
  N   -1.29810053705813      2.03231704713577     -1.63146831236647
