10
Coordinates from ORCA-job run
  C   0.04573661210286      0.12506811795891     -0.40854377052831
  C   -0.02405288666995      0.38217477108910      1.08800971996281
  F   -0.75383450406253      1.00599525419305     -1.15364793635434
  F   -1.05524983274020     -1.93137877634927      1.78643170046546
  H   -0.75008828039126     -0.97984398926930      1.62314201714900
  H   1.06499932922575      0.22953828040797     -0.80875103839548
  H   -0.31615466474727     -0.87999760244829     -0.65589220293919
  H   0.97104042324479      0.30489726074818      1.53887123286437
  C   -0.62248890839599      1.61512131233958      1.45953936070093
  N   -1.14261728756619      2.61120537133008      1.83135091707471
