15
Coordinates from ORCA-job run
  C   -0.13704791340455      0.07134009301131     -0.40272238361357
  C   -0.14933193170378     -0.10798584974230      1.11796134367383
  Cl  1.52581622231857      0.30400728389933     -0.98043746147599
  Cl  -3.18015846450509      1.24972304186326      1.48322352088265
  H   -1.19260467967905     -0.02641378882934      1.45995929980223
  H   0.31694868136656     -1.04384856042905      1.42312436516278
  N   -0.64550796325164     -1.29431865007331     -0.93249344719670
  O   -1.79141368299268     -1.54883178281994     -0.58165398778494
  O   0.07203581286172     -2.00098982506100     -1.62711254496791
  N   -1.00187462212063      1.05077788616496     -0.95794896746400
  H   -0.57959835550162      1.95761866601860     -0.79670217171751
  H   -1.86956173445086      1.05007042307427     -0.40215140764471
  N   0.59705859800550      0.96938591804989      1.81718898998709
  O   1.21256279897987      0.63933168349158      2.83023408639458
  O   0.52878723407771      2.11142346138176      1.37367076596216
