12
Coordinates from ORCA-job run
  C   0.82148321218314     -0.09453829163127      0.03799070317735
  H   1.66188695132508      1.87590714617048     -0.20387174983699
  F   -1.40480763019112      0.40407655710188     -0.79642397685512
  Cl  2.39696412876826     -0.57922605571161      0.78944360212369
  C   0.68134907135311      1.41880066506339     -0.05099504941432
  H   0.80384755754035     -0.50996819679359     -0.96253583656120
  H   0.01093095673687     -0.52199313730264      0.61265482961851
  N   0.24937644494638      1.96370278561200      1.29071949585597
  O   -0.92519491494960      2.25701874563013      1.47431762053829
  O   1.14326509950430      2.05857447864881      2.13551333876459
  C   -0.23898064438071      1.85857876666222     -1.12347725396465
  N   -0.40370023283605      2.65553653655022     -1.98558572344616
