12
Coordinates from ORCA-job run
  C   0.72073944983657     -0.02816974463516      0.05818152147598
  H   1.69161588058553      1.82398816585523      0.48883535666129
  Br  -1.73262046024557     -0.26259720715292     -0.16404935018475
  Cl  2.97659319419605     -0.18043938542953     -0.27621691444929
  C   0.70547790033310      1.47911621594209      0.17817236814830
  H   0.65226674038467     -0.58788620135262     -0.85033170696970
  H   0.51362153894973      1.86519861500451     -0.82615616603438
  N   0.77823832926995     -0.82549633081112      1.29372768722281
  O   0.86655364398347     -0.19818652702821      2.34787831440665
  O   0.75841055954776     -2.04385737494100      1.17630394492989
  C   -0.26478165019674      2.07824411660231      1.09660000765204
  N   -0.92875512664453      2.72198565794644      1.81995493714115
