12
Coordinates from ORCA-job run
  C   -0.46237064034690     -0.03319116744825     -0.39826825970280
  C   -0.34737375370241      0.12242206950550      1.11532927087448
  Br  0.70404591351038      1.01778279116016     -1.58635105618655
  F   -2.66164291471698      1.45703687883338      1.16946684866504
  H   -1.77980016167861      1.06232572185368      1.31693836788631
  H   -1.45843217802069      0.27706059034869     -0.72307002125072
  H   -0.55622645276373     -0.82795130123562      1.60264326920263
  C   -0.28147164462499     -1.43348049218319     -0.79788617100742
  N   -0.16256025219092     -2.57240821676399     -1.06575355700984
  N   0.79677925995032      0.67115441761434      1.73662149569559
  O   1.10438896068193      0.21959369713372      2.86029891285195
  O   1.40100386390262      1.63131501118156      1.22761089998134
