18
Coordinates from ORCA-job run
  C   -0.18001106783102      0.12522696252072     -0.29534956662982
  C   -0.23405903418211      0.08706808987974      1.22931947512014
  Br  1.64407430013852     -0.22154268981530     -0.97400271914637
  H   -2.33285501933006     -1.07402507153132      2.30251950802703
  H   -1.32551334305513      0.14123453373961      1.54075912366906
  N   -1.05399179599684     -1.04730358420890     -0.75232138109557
  O   -2.20991415863269     -0.75811975247016     -1.04566995046675
  O   -0.57935856628135     -2.17545439094865     -0.73814599013445
  C   -0.68413311817834      1.39427489606943     -0.94819486126839
  H   -0.76315333417826      1.24883475663834     -2.02673029698160
  H   -1.66129496102249      1.64729075278336     -0.54004976022994
  H   0.00545553114679      2.21126277036386     -0.74757952411498
  N   0.24441222490784     -1.04758092332587      1.88690482803526
  H   0.82830035410974     -1.64537487697021      1.32193123577208
  H   -0.62701037516540     -1.51213207109525      2.22346154670197
  N   0.43324848973397      1.36283602177596      1.72653099032525
  O   1.59517846399706      1.30564503279747      2.11900173129758
  O   -0.24952459018023      2.39216954379714      1.70542561111950
