16
Coordinates from ORCA-job run
  C   -0.23930258005284     -0.01759902970018     -0.34321113003493
  C   0.13326243707302     -0.14827646700208      0.97308778141386
  F   1.72430836240538      1.02290838743898     -0.89114358755692
  Br  -2.75384977073506      0.35440823670882      2.08378628501815
  H   -1.27381590752036     -0.02004161822364      1.22549185465276
  H   -0.34493852833190     -0.93575549896640     -0.92804850936114
  C   -0.86210239805736      1.19676324488024     -0.92966767477977
  H   -0.40021077907248      1.37345700709045     -1.89810062256238
  H   -1.94586088115470      1.05071654390574     -1.03367456814169
  H   -0.68134847414484      2.06619035751037     -0.30278706638841
  N   0.75763851367816      0.95531432281496      1.60890356150478
  H   0.10231117172061      1.54253351052681      2.10840539541973
  H   1.22655138515873      1.41744242768744      0.81169035600719
  N   0.48580620120137     -1.40187101775159      1.55805640305472
  H   0.33449568079028     -2.16498386706614      0.90877920162516
  H   1.46607556704199     -1.34457653985378      1.80532232012888
