15
Coordinates from ORCA-job run
  C   -0.18255461999541     -0.01289596874341     -0.36953231886869
  C   -0.20886652265254     -0.05148845629283      1.15375731576072
  F   1.17353466395611     -0.13302453585906     -0.77224166735273
  Br  -3.65720761771264      0.22496773069848      1.84350990723242
  H   -1.25512533355058      0.05952024968189      1.49053270349741
  H   0.36094218014242      0.79703705783718      1.54201795946723
  N   -0.92642577189642     -1.09952755558789     -0.95169506311107
  H   -1.23445918303846     -1.76356662012039     -0.25407482248944
  H   -0.34508840139068     -1.56966016355984     -1.63148799161546
  C   -0.68420688073758      1.31708175922069     -0.88513775771539
  H   -0.67211027650609      1.30143566489168     -1.97708955997396
  H   -1.71109386761630      1.44900610621843     -0.53918853501275
  H   -0.05886818967849      2.13864638109425     -0.52591439734441
  C   0.37530569981070     -1.28640470258850      1.66513857867654
  N   0.84684412086597     -2.28634694689065      2.05984564884954
