14
Coordinates from ORCA-job run
  C   -0.21843914457719     -0.00107954945428     -0.30210723659113
  C   -0.18835987491939     -0.16747937473429      1.15145399038047
  F   1.09800000636908      0.25073623149625     -0.90922925138222
  H   -2.34083440384895      0.71467153814664      1.78621935371100
  H   -1.54643009145926      0.10009495637094      1.51693997223439
  H   0.19003565999475     -1.14045084024790      1.47553221587015
  N   -1.01837992763642      1.11817965586868     -0.77663939139650
  H   -0.40258371035564      1.92111091966807     -0.79699365877350
  H   -1.72170914431124      1.29291836060837     -0.05495061298313
  N   0.36404581621957      0.95066190834274      1.88582075677231
  H   -0.40741546397979      1.58153203728478      2.12660313680409
  H   1.03877140872244      1.46501984290585      1.33180638984941
  C   -0.67172928171412     -1.25146377588707     -0.95370416984659
  N   -1.03272184850383     -2.24748191036876     -1.46191149464876
