16
Coordinates from ORCA-job run
  C   -0.14811285257099      0.10068781782970     -0.39709104439221
  C   -0.15000048147314      0.13210261297622      1.14440378251063
  Cl  1.54839718974289      0.30810007043898     -1.05085644774312
  F   -2.80977699870502      0.31012293273593      0.65822623064119
  H   -1.23712997662743      0.18079572171462      1.36427146501334
  C   -0.62590034157154     -1.20781194066223     -0.86612995312981
  N   -0.96781634748959     -2.26248430346158     -1.25217469348117
  N   -0.97943432363235      1.13288048931512     -0.93168765963885
  H   -0.63105174036085      1.99879014642044     -0.52656522055660
  H   -1.90639471458555      0.92452523768629     -0.44562372233347
  N   0.55523871899235      1.27125976921698      1.63902681827706
  H   1.55745883838031      1.14520253344794      1.56440023876796
  H   0.29200437566326      1.45445411957508      2.59770092489830
  N   0.37429273047340     -1.14513369673239      1.76997856792227
  O   -0.26761309749993     -1.59984432235264      2.71807564093470
  O   1.44372902126421     -1.60592718814846      1.36442507230976
