14
Coordinates from ORCA-job run
  C   -0.07228964062111     -0.30980186704034     -0.21805004394626
  C   -0.19361343789567     -0.09276836169234      1.29326945206137
  Cl  1.64657642607088     -0.22091547983105     -0.74827976719674
  F   -1.47060259144311      1.76327250243702     -0.44720473050363
  H   -1.27096643520620     -0.15840173742298      1.47754348909238
  H   -0.70852489685700      0.65423172598951     -0.59494996656186
  C   -0.63640273518394     -1.57214390837760     -0.63634378369305
  N   -1.15195492325752     -2.56579097795024     -1.00220234993325
  C   0.29154013691563      1.31343984186052      1.71555580197991
  H   1.03950015122850      1.25588651770214      2.50970675099679
  H   0.70824111160928      1.83285756036259      0.85715034704693
  H   -0.56055926251078      1.90512933845201      2.04175294307509
  C   0.46660609582103     -1.14480799007472      2.07306629332024
  N   1.00238000132998     -1.97239716441452      2.71268556426208
