17
Coordinates from ORCA-job run
  C   -0.45491805447437     -0.03112398818378     -0.20681789005770
  C   -0.10377910932123     -0.09477727304114      1.12543810567245
  Br  2.07085095474215      0.38212786758408     -1.37970810767547
  Cl  -2.88431451094381     -0.04238502382355      2.16525946487383
  H   -1.44868479377294     -0.14842899714240      1.50577083304982
  H   0.24546344372610     -1.06260205457628      1.48551899127831
  C   -0.85209783088192     -1.28594083088370     -0.91392503323974
  H   -0.38991430881400     -2.16370977485426     -0.46016753732958
  H   -1.94436161386254     -1.39259822429245     -0.86465110381072
  H   -0.54850120062463     -1.23011421898384     -1.95912641881300
  C   -0.96392906421942      1.24696021143077     -0.79032265466126
  H   -0.94041834511453      1.21093042396742     -1.87798142441862
  H   -2.00257256975666      1.37837239644240     -0.45086860732961
  H   -0.37398832719710      2.09983035309533     -0.46311720763611
  N   0.42626862501617      1.02874122590230      1.84953917414726
  H   -0.28191528601014      1.74338718373041      1.96703902749662
  H   1.18077199150883      1.40807072362872      1.27935038845354
