17
Coordinates from ORCA-job run
  C   -0.06872747635178      0.09751096840358     -0.33071928029420
  C   -0.31529622196496      0.22474356975149      1.16771685502548
  F   1.24836314717744     -0.25708916978446     -0.53697936065915
  F   -2.49525507513115     -1.08912694018195      2.14682247832538
  H   -1.39701675152922      0.32921149185358      1.32113913125476
  N   -0.89321555605866     -1.06498687071832     -0.87878989676313
  O   -2.03675684343331     -0.81036024324664     -1.24319872317382
  O   -0.36271304469641     -2.16862426536110     -0.90630650330527
  N   -0.36435433344874      1.24504922171822     -1.11612249570959
  H   -0.18179708360853      2.02968516353905     -0.49591383756474
  H   -1.35319536952426      1.22239620092030     -1.33261004987832
  N   0.37040885244856      1.47294267958740      1.56271501775022
  H   1.32492786979254      1.20357163366480      1.78286060721034
  H   -0.04317717786949      1.73765622461359      2.45001824120911
  N   0.05210951966469     -0.93525773062911      1.93937732826640
  H   0.59363695836550     -1.58806746584232      1.38696440036142
  H   -0.89802141383223     -1.32185446828808      2.17409608794511
