13
Coordinates from ORCA-job run
  C   -0.16300462096376     -0.03077861534410     -0.38186218223412
  C   -0.29342136157210      0.02900139153523      1.07755150781829
  Br  1.75483331176284     -0.11662805547501     -1.11266754237041
  H   -2.39050043158701      0.41215416633173      2.37014786534920
  H   -1.45442577360247      0.06304676956277      1.43931230146568
  H   0.08313459883960     -0.91388489004970      1.49936445484995
  N   -0.83708031289322      1.13602035815853     -1.04790082953241
  O   -0.23785076672320      2.18827876962993     -1.21286770700477
  O   -2.01873732822042      0.92955088290994     -1.33300837669543
  N   0.20738824919522      1.24237143007570      1.67551943813942
  H   1.10949046527208      1.10391490940566      2.11000441667184
  H   -0.48134017560159      1.48372849528394      2.39345808613643
  H   -0.61614585390597     -0.91882561202461     -0.81609143259369
