18
Coordinates from ORCA-job run
  C   -0.13802186829901     -0.01795373196878     -0.37976007857983
  C   -0.11970145165613     -0.03631814456949      1.08701402417055
  F   1.18540142835718      0.04655606225016     -0.99598741002242
  H   -2.45640265796764      0.62492028040715      1.49706592854534
  H   -1.49805387420126      0.18150137778968      1.35468059857566
  C   -0.71353390830948     -1.27348390267946     -0.92517215589960
  N   -1.17366418814992     -2.26803154903395     -1.34889882768896
  C   0.40577118676125      1.25317610174823      1.68117596716630
  H   -0.33768557927363      2.05773957595201      1.58228026441525
  H   0.56591731574760      1.11881213401915      2.75707574514252
  H   1.35661646457637      1.59489445189031      1.24598191574869
  C   0.45271565063103     -1.27845846861463      1.73016434684715
  H   1.55170092998445     -1.34514571939279      1.66244952283389
  H   0.19200093183804     -1.29711352872095      2.79689508044793
  H   0.04321655929585     -2.19231438059668      1.28685330086798
  N   -0.85732980614774      1.10048452151662     -0.96861886471376
  H   -0.28036524437713      1.91793244037540     -0.80004081873067
  H   -1.69637188880985      1.21703247962802     -0.39032853912602
