19
Coordinates from ORCA-job run
  C   -0.09202655344237      0.05375048666066     -0.32957832789559
  C   -0.10766595201516      0.12211897731923      1.19072673879421
  F   1.18721175504030      0.23084230592108     -0.84326859699717
  H   -2.96532987383083     -1.03856960565554      1.30926898248834
  H   -1.17728597874118      0.24777854193213      1.44132802619319
  C   -0.71718569084874     -1.19492522864426     -0.87042867349368
  H   -0.06434849404422     -2.03356708719391     -0.62684822027303
  H   -1.68943191889621     -1.33020221412761     -0.36513601435306
  H   -0.83151209750333     -1.12730955532012     -1.95118009215564
  N   -0.84390090284243      1.27559914355565     -0.91121878868014
  O   -0.60073249842830      2.37671423382093     -0.41544096068622
  O   -1.58703715548192      1.10939607063863     -1.87265419926782
  C   0.29957769177143     -1.21279889882779      1.79954822704619
  H   1.25085929436613     -1.56710201036025      1.39171333651298
  H   0.42511354588325     -1.07498146712650      2.87837969558025
  H   -0.50200238065337     -1.93869772443069      1.65846871504324
  N   0.79608550838619      1.16243790155453      1.71162725727870
  H   0.61602242782813      1.21527631624422      2.70892266476369
  H   0.51706927345262      2.05189981403962      1.31836023010155
