14
Coordinates from ORCA-job run
  C   0.76116489408562     -0.05106482128597     -0.12998141722379
  H   1.75804432366746      1.89411744299181     -0.34745665691046
  F   -1.80073181826633      0.25526752610056      0.15008514781447
  Br  2.06543321366189     -0.90963100852008      1.05497990873052
  C   0.75727273058325      1.48721548822224     -0.16082883989774
  H   -0.30338880990784     -0.30382988951640      0.16161858684913
  C   1.05716367967399     -0.53684754287236     -1.46784433855727
  N   1.33660038763307     -0.94831139320354     -2.53339927022676
  N   0.42327762076747      2.07501772116554      1.24511529285200
  O   -0.46503766882087      2.91906072903836      1.29613285906404
  O   1.13018907638166      1.74563450184672      2.19368404424673
  N   -0.19762606768397      1.85677599323205     -1.12898100812268
  H   -0.31265196416869      2.86134543653534     -1.14142926763794
  H   -1.07624959760669      1.38555981626574     -0.80608504098022
