13
Coordinates from ORCA-job run
  C   -0.38485688511212      0.27814100601356     -0.47556728196466
  C   -0.96986305933893      0.14799342713797      0.97081804824970
  Br  0.12384448030480      2.14772789510776     -0.79824916718874
  Br  -1.85446489053699      2.88551446473802      2.83176438633268
  H   -1.05370968625116      1.11771208570871      1.50734942167918
  H   -1.99408431702523     -0.23424196482279      0.93177434097586
  N   0.78280812474800     -0.52477854487400     -0.80089421585849
  H   0.56833916320759     -1.49886368370538     -0.60305310888740
  H   1.54011710490988     -0.25499103252657     -0.18061966578971
  C   -1.42953085782858     -0.05436965875976     -1.45048751372972
  N   -2.28609907056729     -0.37073821946355     -2.19008469995019
  C   -0.15759126538942     -0.76574354407574      1.75966059589371
  N   0.51768115887945     -1.49063223047828      2.39110886023781
