16
Coordinates from ORCA-job run
  C   0.62036848072173     -0.01269472440545      0.01685019830179
  H   1.32652819338739      1.64929616422391     -1.09715198198800
  F   -0.75336510445004     -0.31674866081197     -1.01833563761040
  H   2.40562500160665     -0.05014759798659      0.79401578109358
  C   0.71848925951749      1.51308390779082     -0.18864739062076
  H   1.19693303976544     -0.66072703420160     -0.60994461045975
  C   0.02297565110243     -0.53141391272247      1.30414828007684
  H   0.34423751705295      0.06281302047562      2.15628989273839
  H   -1.06713594898409     -0.49572884823747      1.22376375530135
  H   0.33127223369576     -1.56537950313662      1.46840865713945
  N   1.28753135219571      2.17890167868824      0.98118700791154
  H   1.53806498830150      3.12308202682560      0.70570793776291
  H   2.12125115881674      1.63354749306015      1.20035506146288
  N   -0.56661635527824      2.18278722008324     -0.42320058046286
  H   -1.01164126990748      2.21715275490321      0.48944545978874
  H   -1.09905819754393      1.52314601545134     -0.98145183043573
