17
Coordinates from ORCA-job run
  C   -0.26112876711419     -0.00372622057803     -0.27766683449300
  C   -0.16140042146905     -0.05877135915843      1.16580697413406
  Cl  1.47715686490263      0.31307931794163     -1.19318618857644
  H   -2.52099792614308      0.23318830613554      1.88380519782903
  H   -1.41491250507376     -0.03546596439589      1.48617574280746
  H   -0.77286528588473      0.91444126369117     -0.57836526651742
  C   -0.85375623647563     -1.20984109756977     -0.96232027000989
  H   -0.22345675383307     -2.09058046710178     -0.83426827081689
  H   -1.83315602849678     -1.39911325314111     -0.50542743273941
  H   -0.98418668575237     -1.03494546827795     -2.03232627798763
  C   0.47332688070931     -1.28407561678836      1.77928710857781
  H   1.55226686125603     -1.33612801881486      1.57658988028180
  H   0.33662837780306     -1.23061970903362      2.86301207363542
  H   0.00898031476945     -2.21227859675965      1.42920993943280
  N   0.29954628551989      1.16620988266972      1.80417766969363
  H   -0.52677859900317      1.73749103346766      1.98734361100568
  H   0.91141362428547      1.67671596771371      1.17545234374300
