16
Coordinates from ORCA-job run
  C   -0.47205057450743     -0.00788667877402     -0.17610819271410
  C   -0.06907451976932      0.11009489885416      1.13989626678995
  Cl  1.44295311052313     -0.65355298202437     -1.59882499813752
  Br  -2.74567506736012     -0.06081523530075      2.69408895252057
  H   -1.50899319318663      0.09575127679027      1.65205727015600
  H   -0.92488764417423     -0.92271120613296     -0.52663458494110
  C   0.42398466578315      1.37008148245261      1.79359867337816
  H   -0.20657734711249      2.23090304799884      1.58158248874137
  H   0.45946917425598      1.20334192617351      2.87308130980947
  H   1.43671382281174      1.57601328322339      1.43466396430244
  N   0.47563688795239     -1.07604148972989      1.70431643629461
  H   0.57399836110226     -1.80620594707839      1.01005631778584
  H   -0.04664827368065     -1.39632917512867      2.51172234920130
  N   -0.94152676157245      1.12764102820805     -0.94447838930257
  O   -0.41558453537330      2.23005468717524     -0.78334086520461
  O   -1.87430810569207      0.90105108329297     -1.72175699867982
