10
Coordinates from ORCA-job run
  C   0.74163883181657     -0.03260649959926     -0.00635071919382
  H   1.58855531460932      1.96181427257205     -0.23790133409131
  F   -1.26369812260499      0.01381045757254     -0.24789558193046
  Cl  2.79136132257327     -0.32494308445910      0.31176435504251
  C   0.63402137082199      1.47710350398280     -0.02097325260200
  H   0.69292514694194     -0.53339003261066     -0.95464060297308
  H   0.41779684099445     -0.57280770079150      0.86050230153456
  H   -0.10711332583936      1.72740790979745     -0.77727760091338
  C   0.14436654211910      1.98718265693101      1.25656778735836
  N   -0.20638392143226      2.43990851660467      2.28043464776862
