15
Coordinates from ORCA-job run
  C   -0.32709452832690      0.02867496491461     -0.28351257181335
  C   -0.16384518337453      0.02482820521817      1.07715581519323
  Cl  1.99436763472636     -0.11421510891866     -1.42270063106340
  Cl  -3.00780728116558     -0.10377005211357      1.93255038645423
  H   -1.59310023503049     -0.03696562854493      1.34098408600079
  H   -0.47168635301927     -0.93056807186407     -0.77221978684704
  C   -0.79550844004882      1.23437035289585     -1.02918976768080
  H   -0.52770285560925      1.15904798029864     -2.08078162086414
  H   -1.88775542451150      1.31035066421379     -0.93724073133385
  H   -0.34703878530042      2.14127257355839     -0.62090521007039
  C   0.37424557106661     -1.18265294899566      1.79553703374152
  H   1.46615216144994     -1.19043540702153      1.72802320170473
  H   0.07586501220265     -1.18771388868060      2.84743401942349
  H   0.00503046927414     -2.10127210493775      1.33349593292873
  H   0.03065823766707      0.99110846997732      1.54524984422627
