17
Coordinates from ORCA-job run
  C   -0.18823907113662      0.10022850240230     -0.28474906981908
  C   -0.10650999124671      0.00261117505340      1.24453387313425
  Cl  1.44809259982313      0.17169667301317     -1.02702961751285
  F   -2.53646118854013      0.82121900431272      1.65522206557821
  H   -1.22217509656056      0.22110431440822      1.57987080891802
  N   -0.85215145960611     -1.19558145206009     -0.76757360337554
  O   -0.32226401224602     -1.87301748761661     -1.64344763308796
  O   -1.92225055660538     -1.45196874678673     -0.22843851454264
  C   -1.05191690308973      1.25446111512393     -0.74060840079275
  H   -1.24609556832117      1.19207770517305     -1.81453127372588
  H   -1.95732444934504      1.21244792554449     -0.11567559915952
  H   -0.52654981147284      2.18677173098809     -0.52510197206086
  N   0.41880141336217     -1.24434311802271      1.76942518202895
  H   1.21431652164052     -1.57177522965909      1.23130481424659
  H   -0.31393488064669     -1.94035803300731      1.74637729500516
  C   0.66908670168496      1.13159925353298      1.74254659783974
  N   1.28108575230621      2.04409666760022      2.16150504732613
