16
Coordinates from ORCA-job run
  C   -0.06216079887543      0.02722155157609     -0.42791641580139
  C   -0.24637622572695     -0.00433531454444      1.02689494103726
  Cl  1.69101205364641      0.19019415263979     -1.04751760433894
  H   -2.37736564057435     -0.30933593114046      2.16048312714807
  H   -1.45691773972410     -0.00168437090383      1.33874847846454
  H   -0.42720284473587     -0.88565777429247     -0.88660807156414
  N   -0.83593494010716      1.14670250586063     -1.06640707590112
  O   -0.44166103947858      2.30270084139167     -0.93965587654762
  O   -1.87475467941577      0.81304797433725     -1.63919882017721
  C   0.34960748850481      1.12939164145978      1.82860486656911
  H   0.13519066297343      2.10814450790558      1.39451139783541
  H   -0.10088511610673      1.08628318618427      2.82729010243101
  H   1.43956537022610      1.03191580241982      1.92474426016862
  N   0.08852502501511     -1.33254089783560      1.51183626138155
  H   -0.66181877655363     -1.55622924553045      2.17774435789742
  H   0.96611720093272     -1.31036862952762      2.02058607139743
