17
Coordinates from ORCA-job run
  C   -0.07113139477448      0.01300894333459     -0.46693815925745
  C   -0.25529101167547      0.03508325127884      1.02403611733951
  Br  1.84512005204294     -0.10299817756133     -1.05433208409441
  H   -2.24924898261705      0.59667137225059      2.50445719280479
  H   -1.38340105860029      0.05086345350700      1.28346645083148
  N   -0.80045575688022     -1.20783577957572     -1.04583918360186
  O   -1.98344957961789     -1.02130120955764     -1.31500911081062
  O   -0.20585916307322     -2.27525461531956     -1.11081709635192
  N   0.16461734620481      1.32575101263162      1.52100664229829
  H   1.03857206997918      1.24027837069572      2.02778615097263
  H   -0.58871437831426      1.56450014084679      2.18811661894958
  C   0.32843348782215     -1.15172831552030      1.76494643334820
  H   1.42190072087350     -1.09637952377877      1.80956602918900
  H   -0.08128454784822     -1.09697967857434      2.77797329426326
  H   0.05175940578265     -2.11591428470318      1.33216037842876
  C   -0.60470085182631      1.20346636063155     -1.11448185933898
  N   -1.01488635747783      2.15342867941415     -1.67256781497022
