20
Coordinates from ORCA-job run
  C   -0.16703338956990     -0.01778767383280     -0.37049730793010
  C   -0.03683747464533     -0.00344096605715      1.15765480641753
  Br  1.64130408280108      0.09675321585776     -1.23757295113532
  F   -2.76437122429095     -0.00260565766545      1.13306463040533
  H   -1.12407319146272     -0.07727842441049      1.44468202041783
  C   -0.86790440287311     -1.27210589486946     -0.86230962331669
  H   -0.30492048763413     -2.18216134378927     -0.65776587929089
  H   -1.81847441129756     -1.27572480811225     -0.31504595253034
  H   -1.04067174472089     -1.19859224182408     -1.93916779852679
  C   -0.98785107441836      1.19372662078384     -0.79011025253473
  H   -1.17750936510311      1.15535382663824     -1.86595621754486
  H   -1.92218925931146      1.08778382323107     -0.21598144455749
  H   -0.49304754512144      2.13924829016800     -0.56403226601211
  C   0.65364489763471      1.21781511472626      1.75286364856471
  H   0.85208429784889      1.97737122090536      0.99751788908719
  H   0.01796830519418      1.65997477876621      2.52335498100891
  H   1.61346142640494      0.94440171669767      2.18825194062252
  N   0.62588815887270     -1.26336908117229      1.63626783817203
  O   -0.08721501002701     -2.26224512325477      1.75149664510464
  O   1.83588741171945     -1.26243739278638      1.88286529357861
