15
Coordinates from ORCA-job run
  C   -0.14089623794413      0.18277403868112     -0.26913111284745
  C   -0.04531921199319     -0.05871191006809      1.23574032030539
  Cl  1.52300178477239      0.22187815453452     -1.05150172477708
  H   -2.60228446259924      0.64991119993188      1.14260497333034
  H   -1.16272316828217     -0.04351486695580      1.52029828626971
  N   -0.79302422285008     -1.07563762351576     -0.94848058084823
  O   -1.12696179348171     -0.92036116667983     -2.11789359099155
  O   -0.98719275515310     -2.08227845056012     -0.27609422552339
  N   -0.88796583206116      1.31330864241791     -0.45985849082703
  H   -1.14435360319604      1.41684562435177     -1.43609411630577
  H   -1.78713603287276      1.16795134865291      0.20042844743740
  C   0.65381233817028     -1.26034958428698      1.66649891461079
  N   1.23967377342234     -2.18589685226659      2.09268550669428
  C   0.55930478985842      1.10441543612949      1.87651139111801
  N   1.04390463421012      2.00465600963357      2.45556600235459
