16
Coordinates from ORCA-job run
  C   -0.29568061345592     -0.02085444992018     -0.35391693016904
  C   -0.22240984525849     -0.04816122283564      1.16454091085765
  Br  1.56684389587457     -0.08195053659573     -1.15366111757720
  H   -3.14133889554668      0.71052630757778      0.99311721932191
  H   -1.30421141998850     -0.10258869491231      1.39778047372285
  H   -0.74650939796939     -0.94701544776837     -0.72028035908317
  N   0.25412200874714      1.24092289532568      1.66730692042672
  H   1.10802235403347      1.13029622030743      2.19756578410502
  H   -0.46191641840909      1.64146425724808      2.26149477739434
  C   0.51130787656068     -1.23922171203718      1.75371159919542
  H   1.58925799226863     -1.16105498731962      1.58078972272597
  H   0.33045133586679     -1.29558936458022      2.83198434529689
  H   0.16869523202768     -2.17525771914381      1.30144531042828
  N   -1.00405177671387      1.09994783247012     -0.86927312182067
  H   -0.59717085369558      1.90948715075636     -0.40430790179557
  H   -1.94998147434140      1.00775947142763     -0.43301763302940
