17
Coordinates from ORCA-job run
  C   -0.49152530449883     -0.04325444753751     -0.19635029072131
  C   -0.08293634823247     -0.10592172492442      1.11421292370879
  Br  2.14249723623569      0.51216581526221     -1.38838245783791
  Br  -2.96933367161933      0.00321132663974      2.29279394608655
  H   -1.44973407482288     -0.14255724274497      1.51190277856505
  H   0.24581979427220     -1.08002481374210      1.47685468402534
  C   -0.86799806968421     -1.29468307164645     -0.91523275553075
  H   -0.54150564992491     -2.18533626914392     -0.37549651191201
  H   -1.95640787111612     -1.33514859256610     -1.04941305996184
  H   -0.39132550525297     -1.28339666851813     -1.89720225834718
  C   -0.98258368555802      1.23408716840728     -0.78850188867715
  H   -0.91530603691440      1.20097197070085     -1.87461568027625
  H   -2.03633293270126      1.35473107794138     -0.49257784283527
  H   -0.41023603439125      2.08881011984604     -0.43713162757470
  N   0.46683044961428      1.01037321821653      1.82909435382763
  H   -0.23447293012268      1.72892784810929      1.96437422067573
  H   1.20851063471715      1.38378428570028      1.23690146678525
