11
Coordinates from ORCA-job run
  C   0.64353845260623      0.03005655905882     -0.00636713693770
  H   1.70937875661076      1.85232611133822      0.07642204551453
  Br  -1.81069001336705     -0.20103215895277      0.15071990840108
  Cl  3.01688679652500     -0.40635751641883     -0.06564384110112
  C   0.67030043556198      1.53298147560279      0.00180203495317
  H   0.61344927325727     -0.49383098913171     -0.94396913600085
  H   0.69210459172447     -0.52643252125377      0.90915441104317
  H   0.14149050586371      1.87265264810527      0.90268273609580
  N   0.11721608725651      2.06526805919033     -1.24258154704762
  H   0.19712775171113      3.07496916444669     -1.22984610508942
  H   -0.86888263775002      1.82943916801496     -1.25913336983102
