14
Coordinates from ORCA-job run
  C   0.46851208676902     -0.03146191025961      0.04226405895907
  H   1.72135252792991      1.63980013551445      0.25728433006846
  Cl  -1.64514127711218     -0.08678644113512      0.00969179591054
  F   2.44977003110596     -0.17282130115970     -0.12408625251273
  C   0.66752039362673      1.47268605838273      0.04778838148568
  H   0.57003032589930     -0.49758553070985     -0.91962766409532
  C   0.69785349898878     -0.85485499409765      1.20139015436077
  N   0.80189738242253     -1.58082501701360      2.12036479019022
  N   -0.05494092322869      2.11952672555172      1.24734698003480
  O   -0.77448834855612      3.09336265104970      1.03179896787006
  O   0.21170406201144      1.67179370225028      2.35697850378996
  N   0.28061429200780      2.03893015842922     -1.19189842862366
  H   0.45013616259401      3.03499768055355     -1.18366215895743
  H   -0.71064021445847      1.88301808264387     -1.33036345848039
