13
Coordinates from ORCA-job run
  C   -0.26207795104979     -0.05499919615051     -0.46626515235423
  C   -0.14989808525697      0.10229012408200      1.06938787425531
  Cl  1.09596975079185     -0.98776110742798     -1.12452166088045
  Cl  -2.04219310212758     -1.75648762270550      2.81245487237883
  H   -1.02566035765157     -0.36693494905974      1.58064867814414
  H   0.69751447129130     -0.49061268504765      1.41653458022945
  C   -1.50058903687360     -0.70108107821519     -0.88818678562575
  N   -2.46980743359900     -1.22908853137756     -1.29102523523329
  N   -0.25544246081428      1.34824941212699     -1.12829546535439
  O   -1.34930050726767      1.89381730852195     -1.17634102235696
  O   0.81935824656616      1.81450749928808     -1.46547023785622
  C   0.03309338235570      1.47940301588836      1.49612831089053
  N   0.20264308363540      2.58605781007671      1.85145124376305
