13
Coordinates from ORCA-job run
  C   0.50558028931486     -0.06926072920168      0.00932228912949
  H   1.71889388909618      1.73786319735921      0.02491124786450
  F   -1.13269638498227     -0.01262125828781      0.05668097862575
  H   2.34969359092294     -0.27891486516099      0.08773416119865
  C   0.67150069420938      1.45195202465763      0.03798476709767
  H   0.19030425692229      1.80031058841496     -0.87864726681064
  N   0.55731006393765     -0.71260067477070     -1.28892798261211
  H   -0.25272102901686     -1.32132209930404     -1.33425676249578
  H   1.41607419766713     -1.23779035922856     -1.33906305321502
  C   0.74339461748353     -0.82336304767962      1.21874909965227
  N   0.73528830154188     -1.47115747272744      2.20724261761147
  C   0.01075128413723      2.07947254696070      1.18378906852009
  N   -0.45532377123397      2.64700214896834      2.09972083543368
