16
Coordinates from ORCA-job run
  C   -0.19237282996211      0.04423323872677     -0.37871935907685
  C   -0.07534702945020      0.19254374539843      1.15145447587875
  Br  1.57120995676303     -0.46195399756394     -1.11251030879504
  Br  -3.17776490456905     -0.72847916812740      2.48520755483404
  H   -1.05841585419174      0.53711775730870      1.49484117838524
  H   0.64937802773764      1.00756544242108      1.28334832141621
  N   -1.12023735969202     -1.12707965696496     -0.72031294159723
  O   -2.22185895901973     -0.86868494723887     -1.19201596284371
  O   -0.70779697756583     -2.24928388870664     -0.45308337632248
  C   -0.66649660887377      1.34627129880131     -1.01474173193801
  H   0.05975702481025      1.74232992263663     -1.72194304830456
  H   -1.61281369633313      1.17951718095448     -1.52457290870648
  H   -0.83547750327604      2.08717151602207     -0.23058536656305
  N   0.26898803688664     -0.94915860821211      1.95072063854317
  H   0.88861524513548     -1.57911900552473      1.45969803232100
  H   -0.59445656839942     -1.42959082993085      2.18907480276905
