14
Coordinates from ORCA-job run
  C   -0.25458628320844      0.11899996501708     -0.36300232260136
  C   -0.02886191336450     -0.11274296546289      1.10749794076440
  Cl  1.28432084194265      0.50726598372874     -1.26509671951544
  H   -2.42317682552612      0.46313249781261      1.74045396405786
  H   -1.17281355542911     -0.03757432442662      1.54915079724335
  N   -0.78620385152254     -1.20035347593578     -0.95903035267382
  O   0.02358320485463     -2.09542993566798     -1.17660050185559
  O   -2.00070957561721     -1.27828409283046     -1.09629631818656
  N   -1.21296874188756      1.13156223944236     -0.63200744383169
  H   -0.76855684402702      2.02818119957729     -0.47206351327315
  H   -1.94556587631702      1.01925121519633      0.09913810545682
  C   0.72291262752594     -1.27438017182363      1.50531509151899
  N   1.31361236885823     -2.20708553485555      1.91638511401891
  H   0.42071442371807      0.79084740022853      1.52919615887729
