9
Coordinates from ORCA-job run
  C   -0.82082407145079      0.25850460984904      0.73399483773374
  C   0.10764997369407      1.18677272151393      1.04524278957478
  F   -0.70255300366073     -1.01665639642196     -1.80211136027619
  F   -0.30689543943365     -2.24071350575662      1.02725486595498
  H   -0.54752413833786     -1.18422897060570      0.89655090911612
  H   -1.83592002845464      0.68043840885812      0.64446774102687
  H   -0.64581162120282     -0.84387679158020     -0.87678115570040
  H   1.15560535735560      0.90414963391363      1.16964663159417
  H   -0.09160702850923      2.25561029022981      1.19321474097596
