11
Coordinates from ORCA-job run
  C   0.86339180956585     -1.12383059754641     -0.55926642702263
  C   0.48257912559496     -0.40355760734426      0.49119009911526
  Br  0.50393299589748      2.51112505105029     -1.39937157528442
  H   -3.61233673088703      0.70627928560075      2.45144138816762
  H   -2.97179493295297      0.38597316337916      2.27396428220118
  H   1.02264764877568     -2.19559288948133     -0.50384385248722
  H   1.01126515171494     -0.59058739825589     -1.49046151799620
  H   0.32088459047425      0.67333371045144      0.45158716141284
  N   0.26444802022890     -1.04896665624176      1.78576516662547
  O   -0.87068144492398     -1.45860259457837      2.03714781967543
  O   1.22281376651192     -1.12260346703359      2.55546745559271
