18
Coordinates from ORCA-job run
  C   -0.22451362168486     -0.04149827972271     -0.32963031899017
  C   -0.19159672953900     -0.03295509988093      1.11683595244832
  Cl  1.65317129439154     -0.10783483326360     -1.17323417453706
  H   -2.67650390534524      0.02625822604279      1.56258123561643
  H   -1.44794626321704      0.00184686608020      1.36080701682248
  H   0.15294712424849     -0.98665040363644      1.52886539281565
  C   -0.81354199590814      1.21304681668217     -0.92277784007015
  H   -0.87183120853441      1.14927111192614     -2.01167555175144
  H   -1.82559515591802      1.30992801173658     -0.49902187167702
  H   -0.23306792995665      2.09759836442788     -0.65903377961558
  C   0.40837870352829      1.16746787810258      1.81791659515877
  H   -0.22530475485476      2.05219746569917      1.69278212748970
  H   0.47317509857666      0.97970917940036      2.89460366463625
  H   1.41405118507992      1.40542955036254      1.45036820015903
  C   -0.88698547221108     -1.28516521844175     -0.86356941466164
  H   -0.37865475409498     -2.18249603976955     -0.50481022373434
  H   -1.91605252124849     -1.28102839521289     -0.47127934672614
  H   -0.90379909331222     -1.30197520053256     -1.95580766338306
