16
Coordinates from ORCA-job run
  C   0.57623514524148     -0.07590648155914      0.00577654083135
  H   1.67640046648623      1.62466203654320     -0.39848725054935
  Br  -2.32577761663317     -0.34495095690556     -0.04695238199695
  Cl  3.31637317260226      0.22462277618817      0.83800112190784
  C   0.64730996247054      1.44056139879421     -0.07552956971278
  N   0.70271218449489     -0.72086783246758     -1.11412403046676
  H   0.55246665319118     -0.16190100945503     -1.94680862065127
  H   0.57881247158440     -1.72010221575886     -1.14932595062101
  C   0.51896050086318     -0.79942271123598      1.24128380843709
  N   0.45189534726330     -1.44618789868643      2.22338996699059
  N   0.38093239016306      1.99823692517567      1.23926002637749
  H   0.29248970265835      3.00281442881187      1.14232741396862
  H   1.20523457939359      1.81326115505425      1.80728741368971
  N   -0.22199085769289      1.86038318258438     -1.15084916393122
  H   -0.06582898784855      2.83778632047018     -1.36116333633005
  H   -1.18978511423786      1.68732088244667     -0.88365598794333
