12
Coordinates from ORCA-job run
  C   0.47209023632050     -0.06323064465728     -0.05242588131831
  H   1.76936698131229      1.62935455050305     -0.14490578941322
  Br  -1.76665402683451     -0.09723322012442      0.23536404376889
  H   2.52877072244184     -0.37286659682863      0.25258902819052
  C   0.69869388637837      1.44285148222937     -0.09083625206833
  H   0.68310304976733     -0.55263467612005      0.88248942796349
  H   0.31042658333570      1.89140196874711      0.82833525745063
  N   0.56251439763104     -0.74747771313147     -1.31736520854179
  H   -0.05779407864072     -1.54809666920380     -1.29300311940573
  H   1.52262221415778     -1.06347059801092     -1.36816679119672
  C   0.06111904204829      2.09916560804094     -1.23315592770662
  N   -0.37551900791794      2.71505650855610     -2.13218878772282
