16
Coordinates from ORCA-job run
  C   1.14671500651021      0.10111176488168     -0.03303404753809
  H   1.78966502937621      2.08966748396447      0.24802907278979
  F   -1.63322655986463      0.49985413716863     -0.64866647387623
  Cl  2.90440902438332     -0.16932290113810     -0.34107755540913
  C   0.82730993739883      1.60675823545982      0.03497447316970
  H   0.93504181453355     -0.38382391407554      0.91495775304538
  N   0.44594583639678     -0.78733425706817     -1.03912712109439
  O   0.54626823456783     -0.52232329597294     -2.22464492494153
  O   -0.04091554671627     -1.80960543370978     -0.56511421473319
  C   -0.11199325331187      1.84724779853861      1.22527489070929
  H   -1.04316871322307      1.33107700090421      0.97167934396277
  H   0.31939089800654      1.49198662859211      2.17055046178894
  H   -0.29298529135658      2.92431881501948      1.32004362262902
  N   0.32990194045554      2.10904711673976     -1.23450392968613
  H   0.15663773109730      3.10136594503726     -1.10284936245668
  H   -0.59200608825372      1.62727487565852     -1.30349198835955
