12
Coordinates from ORCA-job run
  C   0.73720780203514     -0.03755722481113     -0.04529008421072
  H   1.37231085212479      1.92077431639289     -0.66228300656076
  F   -1.33125505483744     -0.19645515957170      0.05321801565369
  Cl  2.89491363140777     -0.19465096852580      0.38113413391052
  C   0.61673366101695      1.45904161354053     -0.02293901850760
  H   0.51007853779251     -0.59393604262557      0.83970254416073
  H   0.74759255578771      1.83814718387983      0.99120794204016
  H   -0.38985248623328      1.68817583521330     -0.36575920500386
  C   0.72419697914996     -0.73506302777456     -1.37492062891618
  H   -0.28261404712384     -0.61391664393468     -1.76864445788196
  H   1.47178185278664     -0.30755845698485     -2.04661678639931
  H   0.93986571609312     -1.79703142479828     -1.25253944828475
