14
Coordinates from ORCA-job run
  C   0.50976081463032     -0.08975454046642      0.04038067275976
  H   1.77771272653488      1.62470195480342      0.02818157237936
  F   -1.26623117866177      0.21412361358665      0.17658717664154
  F   2.23386148923200     -0.34440463828156     -0.36564425505457
  C   0.70295394047729      1.42555117560249      0.01934352788306
  H   0.27499071721017     -0.59470909048151     -0.87739228704842
  C   0.64283390540394     -0.82908517986981      1.34485981073642
  H   1.42428911566349     -0.36739906946084      1.95125864528479
  H   -0.30245429971864     -0.82910496256663      1.88204056459430
  H   0.96607334762150     -1.84865449571930      1.13470209854087
  C   0.10420270064247      2.07757531809441      1.19170776446585
  N   -0.24912536103997      2.65668212935954      2.14950888052068
  C   0.14641192523048      2.00987491647926     -1.20359225380610
  N   -0.22553984322616      2.50660286892032     -2.19962191789758
