12
Coordinates from ORCA-job run
  C   -0.14547564970220     -0.05747694504691     -0.38026927530027
  C   -0.10628015210589      0.02376887271788      1.09342714308487
  F   1.15736575568880     -0.12264230405641     -1.00561596391918
  F   -2.74415279632325      0.24710178649595      1.62522639893988
  H   -1.77410220096295      0.16318061600289      1.48240401473414
  H   0.32499593338791      0.95820526486146      1.45961942798763
  N   -0.85997210746595     -1.22398235619034     -0.88934685821796
  H   -1.27378925775239     -1.70705408018717     -0.10219464117108
  H   -0.16815494185929     -1.83830791804960     -1.29887748295942
  C   0.44857323241693     -1.12251729790435      1.73020453933872
  N   0.85197503550913     -2.09214609413006      2.27458924898874
  H   -0.56585285083084      0.86170045548668     -0.80227655150606
