12
Coordinates from ORCA-job run
  C   0.61836097485178     -0.06819531562076      0.02741961747192
  H   1.55076203761010      1.81412690286575      0.35590720649618
  F   -1.16492395807355     -0.18772622452046      0.21977030363552
  F   2.37235191903418     -0.09090781347383     -0.39277772709098
  C   0.57396939194151      1.44428023784700      0.04755587478227
  H   0.47799877974863     -0.61108519832275     -0.89159176866240
  H   -0.19158688434920      1.75209103538510      0.75861378866495
  N   0.85904123630343     -0.69588048962852      1.29631586703654
  H   1.69440330004752     -1.24978687199956      1.17574929551416
  H   0.04978666285307     -1.27260778292675      1.47474744438720
  C   0.24802950628534      2.00970556948238     -1.25834414512567
  N   -0.00661296625283      2.49438595091241     -2.29657575710969
