16
Coordinates from ORCA-job run
  C   -0.06613442962547      0.09101233314804     -0.35481304970754
  C   -0.04720780253014      0.06089402066064      1.15992061987783
  Cl  1.61835455039848      0.00363949974149     -1.06743426919606
  F   -2.60340145013118     -0.31505199881945      0.87404157766487
  H   -1.19621222622636      0.05035326174949      1.31403475722311
  H   -0.56626439485388     -0.82455336190696     -0.66771012262798
  C   -0.81460453470015      1.28331327188546     -0.90240213491647
  H   -0.86032709703801      1.25312531514125     -1.99381840548875
  H   -1.81586414501382      1.18055803918418     -0.47374317876153
  H   -0.34707253090286      2.22139856733993     -0.59283376277695
  C   0.52774851852021     -1.23949813654950      1.74688335272369
  H   0.82428788816288     -1.92371384345794      0.94764555889883
  H   1.40893655430388     -1.06666774404081      2.36961830575038
  H   -0.23961380300540     -1.73529398875027      2.34529179724425
  C   0.56599618802556      1.24539047609221      1.72676972387608
  N   1.04741871461628      2.20007428858223      2.21943923021619
