16
Coordinates from ORCA-job run
  C   0.18522183745734     -0.03248840629838     -0.23314287121567
  H   1.67845837391079      1.37483084389203     -0.36716891195110
  Br  -1.77899503147409     -0.21167055891784     -0.00441602713417
  F   1.84272256390559     -0.02798532018579      2.00403555977000
  C   0.59401910156888      1.43145787750910     -0.17016804364932
  H   0.62852234553276     -0.46924741775121      0.67225961898492
  C   0.63076905159495     -0.71219232000503     -1.52812981093338
  H   1.28212783870639     -1.55936162833390     -1.29699331095162
  H   -0.20979693598196     -1.07658721853168     -2.11942669288634
  H   1.18009306782993     -0.00254328219311     -2.15090564210398
  N   0.32326343599071      1.94912621694104      1.15920256793576
  H   0.79450877961863      2.84802334737815      1.23182269120014
  H   0.86168378921481      1.27787737590161      1.76138328726853
  N   -0.00460239888073      2.20908425859330     -1.25385548296818
  H   0.39166501159842      3.14359610015815     -1.21831194311366
  H   -0.98634083059243      2.31007013184356     -1.00979498825197
