14
Coordinates from ORCA-job run
  C   1.01122056173922     -0.04195553283102      0.07997417223820
  H   0.95348195851986      1.89300263511365     -0.81720007376040
  Cl  -2.24363072373075     -1.18568982494910     -0.38755352091799
  Br  2.94922152015572      0.19061539145476      0.63466271986279
  C   0.40219896355963      1.34384123721830     -0.04520715717187
  H   0.56797239518898     -0.57958803131023      0.91751515686465
  H   -0.60404318834436      1.14305650477665     -0.42541013692760
  N   0.94491519597648     -0.86628868848598     -1.07364697224940
  H   1.04839298313923     -0.29827866918503     -1.90697655774333
  H   0.00243130291114     -1.26766311648518     -1.07091522906052
  C   0.33242236865414      2.13449638516819      1.26918513072348
  H   -0.70565324386820      2.29545504140231      1.56675464476405
  H   0.82966459938948      1.59919785920436      2.08066126354873
  H   0.81994530670942      3.10891880890830      1.18793655982921
