18
Coordinates from ORCA-job run
  C   -0.19352414094268      0.02327963647902     -0.40113590470677
  C   -0.01036742618653      0.17484019352508      1.12473402067602
  Br  1.61142694950391     -0.34018581305336     -1.21295518733897
  F   -2.31962735457073     -1.05140334827300      1.84665746101087
  H   -1.03567208351452      0.39008326143453      1.47396974360225
  C   -1.07717588653129     -1.17370183377794     -0.70035781198968
  H   -0.56300926573925     -2.10598060866158     -0.46435506146021
  H   -1.93640659953616     -1.11362966113223     -0.01238097290674
  H   -1.35633927604226     -1.18494459288315     -1.75765406776131
  C   -0.75289549527204      1.32533891454784     -1.00012413652975
  H   -0.07214645994357      1.78553890025235     -1.71562564911458
  H   -1.70142456021281      1.12279904701446     -1.50345358767112
  H   -0.94475107597868      2.05649892321598     -0.21085202320069
  N   0.33650253644937     -1.00902696568042      1.87972326443368
  H   0.95316298107482     -1.60521665599543      1.33981522239324
  H   -0.59744845565611     -1.43112924104600      2.01897165917656
  C   0.88287116521366      1.30615621709463      1.42649867608940
  N   1.57452444788486      2.22427362693921      1.67131435529778
