11
Coordinates from ORCA-job run
  C   0.73326327363823     -0.04775760279360     -0.00830394536127
  H   1.74961206210997      1.87615460757769      0.15848249801744
  F   -1.26253595258293      0.25283786943688     -0.09748155550460
  Cl  2.76462721523085     -0.52288189367400     -0.04032143947297
  C   0.75048434031348      1.45200137101296      0.03037840040424
  H   0.49258772354740     -0.51758696788494     -0.94058700559888
  H   0.48962209469359     -0.56179952540119      0.90135243878723
  H   0.25261238665757      1.86340530785794     -0.83898165163522
  N   -0.01663844829783      1.97343003656482      1.20115925514103
  O   -0.61198992217005      3.03644556298502      1.04260331687003
  O   0.09210522685974      1.39045123431842      2.27337968835297
