13
Coordinates from ORCA-job run
  C   -0.23809815732412     -0.00407913025991     -0.29463359539737
  C   -0.06716146900998      0.05468246532040      1.08044743500081
  Cl  1.83346451968957     -0.21423740120369     -1.46930003182665
  Cl  -2.72385351471016     -0.06942416331479      2.37603577206233
  H   -1.47415853076974      0.01798353538568      1.56558815777615
  H   -0.55524789649129     -0.93776113624540     -0.74435786587163
  C   -0.65852547538117      1.17918345843344     -0.99545589011413
  N   -1.06908068976020      2.15276809780414     -1.51545170580006
  C   0.46774464168579      1.29759278802483      1.73913012323553
  H   -0.00279463549844      2.19450371277567      1.32991845244147
  H   0.28098558079787      1.27875227194374      2.81557095166827
  H   1.54692305775671      1.37264287870649      1.56556022074241
  H   0.22589256901514     -0.89120737737061      1.53566797608286
