14
Coordinates from ORCA-job run
  C   0.62003184808790     -0.64701435988510      0.98600221075242
  C   0.25069946362409      0.82319315581806      1.11989437514058
  Cl  1.86012958096129     -0.75113459560807     -0.34677986084903
  H   -3.49082086006151     -2.86671181799639     -2.04077673396176
  H   -0.05273034810531      1.26293314867419      0.14983579575823
  H   -3.00975408108938     -2.72273060069077     -1.49601584617172
  C   -0.46330275256419     -1.50381900794636      0.69410404974734
  N   -1.34366203357675     -2.28427341542399      0.53235602423227
  C   1.42933449011365      1.65999229494872      1.68622238069464
  H   2.28611793040929      1.00164850974867      1.82774817991528
  H   1.71189360726099      2.46090985187850      0.99788351302356
  H   1.17936973810696      2.10907802032936      2.65029902378811
  C   -0.91013963244183      0.95888907524131      2.00595299497543
  N   -1.82369695072511      1.12343974091205      2.72642389295456
