17
Coordinates from ORCA-job run
  C   -0.24341128541091     -0.00293972947800     -0.29677026990945
  C   -0.10778985141635     -0.02556894991085      1.17741586344792
  Cl  1.43477821458066     -0.02007861030182     -1.24772818931226
  F   -2.62401128003388      0.05103807291272      1.17502098182524
  H   -1.37130647250413     -0.00882583529059      1.37457488286005
  C   -0.89059044830237      1.21464400218229     -0.79283539036386
  N   -1.33377214914099      2.21946940674999     -1.21050709724180
  C   0.54390104408530      1.22892303618161      1.72369243795268
  H   -0.01355861622978      2.12500830221879      1.43751608983708
  H   0.55132829779675      1.18663597878128      2.81742649592385
  H   1.58367077177357      1.34525116243327      1.38431615593231
  C   0.53138356623796     -1.30177411355013      1.68688792876525
  H   1.58363694177055     -1.39544341736141      1.38054378270757
  H   0.49847437513036     -1.31222021066327      2.78092911832023
  H   -0.00591792785372     -2.18809802028535      1.33786387679576
  C   -0.93260772300224     -1.18439829652109     -0.82268713995405
  N   -1.42312745748079     -2.15210277809745     -1.27370952758652
