14
Coordinates from ORCA-job run
  C   -0.06040338801999     -0.08868488955461     -0.34667694124681
  C   -0.16286694307007      0.02813563831994      1.10354770247550
  F   1.26031716653422     -0.05021625836314     -0.91376549449068
  H   -2.62245923959620     -0.21180689801532      1.56532293664503
  H   -1.50620773923915     -0.04249481459312      1.38231495670170
  H   0.22786604564011     -0.86409994343384      1.60009887361661
  C   -0.74260362734757     -1.31091351895752     -0.90005816635061
  H   -0.20989307412530     -2.18643288352291     -0.52288784153278
  H   -1.77409970252485     -1.33438417933391     -0.53952573838645
  H   -0.72117557265643     -1.31681124943130     -1.99061735707271
  N   -0.67971928174359      1.17010123381575     -0.95252221254545
  O   -0.11932074694556      2.23658457661710     -0.70534671192754
  O   -1.69934393734337      1.06111247996520     -1.63535729865600
  H   0.29771004043775      0.94130070648769      1.48456329277019
