16
Coordinates from ORCA-job run
  C   0.43243540597799     -0.07923063982151      0.06214031313587
  H   1.71744709489767      1.63349427156224      0.02865931521261
  F   -1.25972449583036      0.02534637835839      0.20756462174683
  H   2.26731341631817     -0.36901916284685     -0.40855405735680
  C   0.64664875871111      1.44082300596578      0.03760610167867
  H   0.36060142256037     -0.60282910409706     -0.87012207971219
  C   0.71945268430575     -0.83552247605442      1.34277358343112
  H   1.56251179950737     -0.41566930127645      1.88890816073685
  H   -0.17594613127173     -0.82606543154581      1.97304195946092
  H   0.98356387726764     -1.86452253780079      1.09933905422810
  C   0.00754898594039      2.16031664584936      1.23294943831713
  H   -1.06967602399906      2.01792040869556      1.21952768372556
  H   0.40456772750378      1.74879286831582      2.16401858464557
  H   0.24610040977959      3.22794489596035      1.20146593072297
  C   0.10414810658780      1.99722712148014     -1.20479562209545
  N   -0.30875303825646      2.48978305725527     -2.18801298787776
