15
Coordinates from ORCA-job run
  C   0.49203077435704     -0.02376892016581     -0.00395910005032
  H   1.57800317654278      1.85077526558199     -0.07657802481094
  Br  -2.33314412748816     -0.30716530912411      0.03001116446146
  H   4.07059847971073     -0.90841434206696     -0.07127978794299
  C   0.53746429453254      1.49894499713154     -0.00980862291022
  C   0.65703977254773     -0.72837098823933     -1.21857946180919
  N   0.79693030877694     -1.28970579471735     -2.25705074552591
  C   0.69130386321637     -0.68572688227302      1.22652455378255
  N   0.86250085801440     -1.19140822352934      2.28993382658734
  C   -0.06680775715540      2.11692942375601      1.25606136899914
  H   -1.11514366539512      1.83091956195567      1.33553554238046
  H   0.46433917942621      1.74770920036249      2.13655558133515
  H   0.02127859258950      3.20703612492086      1.22423225544881
  C   -0.11532236669081      2.05918311651209     -1.20183014590783
  N   -0.55113138298476      2.61011276989529     -2.14563840403751
