17
Coordinates from ORCA-job run
  C   0.52266528299593      0.00969888797020      0.08802601780135
  H   1.76158994106314      1.73956941420258      0.03069363736044
  Br  -1.69454047719915     -0.24739231507539      0.44930917914057
  H   2.17338735044094     -0.24518657039198     -0.72793076470904
  C   0.68731361827627      1.55260969914081     -0.00073881794216
  C   0.75680865037800     -0.77554144790127     -1.11670395229595
  N   0.46657415959265     -1.47759653524909     -2.03718260319517
  N   1.00401409778315     -0.51770406640738      1.36220490475766
  H   1.97436875164033     -0.77653945131479      1.21949846984732
  H   0.47265021769162     -1.35778751755016      1.56550669878095
  N   0.13016193102561      2.27368086426552      1.14228194737026
  H   0.44361084737485      1.76801772762233      1.96707456643941
  H   -0.87509929507798      2.13392760851716      1.12058243466754
  C   0.14110454763243      2.09768000127455     -1.30709696067457
  H   0.64439474276245      1.63581180833039     -2.15910178404522
  H   -0.92710245033744      1.88459991030657     -1.39036294671331
  H   0.29403808395723      3.17978198226000     -1.33626002659008
