14
Coordinates from ORCA-job run
  C   -0.14331566841097      0.09799433355634     -0.28043493321303
  C   -0.28048009312439      0.17640708127851      1.19137912487771
  F   1.14588225749256     -0.19970191421370     -0.74311720409085
  H   -2.34472102050461     -0.98446691193461      1.92375090419706
  H   -1.44075877404223     -0.09669744997877      1.46449436049910
  H   -0.03172445386093      1.18574223261000      1.53284529213793
  N   -0.99901082225456     -1.05856128030020     -0.79706380827298
  O   -2.13754949581351     -0.78424276108362     -1.16235087859983
  O   -0.51619041881964     -2.18016446453170     -0.68960321893602
  N   0.38997139043304     -0.87533305195751      1.92020823763334
  H   1.07638180985710     -1.34902687334352      1.34850778351386
  H   -0.35355968362466     -1.54001182812402      2.16628827965340
  C   -0.57593170558399      1.32558474203771     -0.95514308845935
  N   -0.86306332174321      2.35114814598509     -1.45176085094034
