16
Coordinates from ORCA-job run
  C   -0.54534255393081     -0.23280601374160     -0.23687962757697
  C   0.00591110746617     -0.21618923840744      1.08281306456772
  Cl  1.76391426315297      2.94921759022609     -0.65252366223736
  H   -2.38305207995051     -0.24989399369751      1.62614371764358
  H   -1.13830938012543      0.01764383940033      1.57141762813969
  H   0.70047279425381      0.60500316951352      1.26142578933935
  N   -1.56482466490368     -1.14099695070427     -0.49815362086449
  H   -2.26803716982627     -0.82216808860430      0.30114942002871
  H   -1.27609463258015     -2.05086998984633     -0.15243230999952
  C   0.36947286394027     -1.53365759348499      1.74905686652383
  H   1.06879754799232     -2.13350206944226      1.15931396562402
  H   0.83823226433418     -1.33512902600898      2.71576001289692
  H   -0.52818360994933     -2.12897921220852      1.94610863846188
  N   -0.49830155727142      0.83991400713596     -1.01064343293822
  H   0.21479951212806      1.58186364390236     -0.88237920859108
  H   -1.04472470473016      0.81219992596792     -1.85586724101810
