16
Coordinates from ORCA-job run
  C   0.12087918415456     -0.06868385963477     -0.43096326420764
  C   -0.13359377630444      0.07915368303944      1.05502542896906
  Br  2.06026884467262     -0.44418179802554     -0.82886493108852
  F   -2.48385422450955     -0.95396528968038      1.24242421025958
  H   -1.29680061540439     -0.10565410956266      1.16612777511878
  H   -0.00523855571088      0.89657942927799     -0.92374480874790
  C   -0.77695141639283     -1.13273976731518     -1.06716317307295
  H   -0.25285281607999     -1.73410382022126     -1.81071240266962
  H   -1.24308928123224     -1.73759972802081     -0.29006686450241
  H   -1.61255326978169     -0.61896862274500     -1.54981732814518
  C   0.40809515871742     -1.05483786871514      1.92375128640401
  H   0.07347831729875     -2.00678205432992      1.51129455449706
  H   1.49942919947211     -1.04743068511543      1.99313137657495
  H   -0.02659546138738     -0.97081157561898      2.92141290616594
  C   0.29484448308473      1.37312231262964      1.54615772392512
  N   0.62960422940320      2.42524375403801      1.95597751051972
