16
Coordinates from ORCA-job run
  C   -0.19305716481505     -0.05535043131124     -0.33915410338166
  C   -0.01282074322988     -0.04344329935725      1.03954544524064
  Cl  1.89115072838039      0.09234767635944     -1.46691484126851
  Cl  -2.65998045951341      0.16720336227101      2.30287541775628
  H   -1.39559479495418      0.02049589784236      1.48312778514803
  H   -0.49322248526202      0.86662030989271     -0.82686563325066
  C   -0.64129625578139     -1.25466537630609     -0.98960794726174
  N   -1.06391837533989     -2.23685318956479     -1.48381569955608
  C   0.49882943249702      1.24675916497481      1.62917714505717
  H   0.01839533204782      2.11263018282688      1.16642394151984
  H   0.30701880170994      1.28524753194379      2.70484025043050
  H   1.57773896632400      1.31919676994409      1.44829058521620
  C   0.47307870711728     -1.29750392069585      1.71984253645368
  H   0.24854513199075     -1.26191440089721      2.78964751202978
  H   1.55858613086242     -1.38270137938602      1.58694926011906
  H   0.00788704796619     -2.19327889853665      1.30308834574748
