14
Coordinates from ORCA-job run
  C   -0.13904675657841      0.07770891699169     -0.34837739223709
  C   -0.13582844067031     -0.01390729757429      1.15384594356547
  Cl  1.53831888796163      0.06075369711995     -1.08111052324539
  H   -2.65762338914383      0.43119378152271      1.13239866361683
  H   -1.34334605422052      0.08183061724585      1.34055950784077
  H   0.27307970000629     -0.94905627918937      1.53343660437853
  N   -0.77892517832117     -1.23366146943315     -0.86624713806872
  O   -1.60740421960864     -1.15889445706925     -1.76072205597871
  O   -0.38461756014621     -2.27016067137442     -0.33976858461092
  N   -0.87521768555784      1.16145050497996     -0.87592506083115
  H   -0.39713123239047      2.01728921403555     -0.61362680361084
  H   -1.77547243266905      1.12968872337661     -0.35544312734759
  C   0.48488580827724      1.13930772745007      1.74904549581954
  N   0.92865855306129      2.11060699191805      2.24581447070925
