13
Coordinates from ORCA-job run
  C   0.72003960350369      0.06799775071433     -0.02170629805797
  H   1.84480472456292      1.83358107646385     -0.42160180746214
  F   -1.30497286849700      0.22455430035494      0.24105423490535
  Cl  2.93257224640636     -0.47370217847760      0.24371616565964
  C   0.83273697637223      1.58068359236341     -0.10755866596484
  H   0.59669453792507     -0.42882488073255      0.92244950329358
  H   0.67108869980694      1.98376583553665      0.89431090352405
  N   0.51279473087546     -0.61233303972291     -1.24868822756912
  H   -0.50359714458449     -0.59640190101221     -1.30862711462461
  H   0.81713902645254     -1.57050194036709     -1.13404951842374
  N   -0.11754390948919      2.19849495194693     -1.02773474111804
  H   -1.00194732648863      1.77123271767394     -0.75475918304752
  H   0.09868070315414      1.84034371525830     -1.95220525111463
