12
Coordinates from ORCA-job run
  C   -0.49785554487512     -0.05068053772422     -0.18051975431086
  C   -0.34982960086645     -0.56975897065902      1.20604966704726
  F   1.23699243337743      0.61634769690847     -1.52096144981255
  Cl  -2.80924768665054      2.21934239148101      1.85065686210866
  H   -0.95972916712291     -0.00494036867928      1.91081142946645
  H   0.70868948172330     -0.48643616695800      1.46704189752598
  H   -0.61012718966496     -1.62968454329536      1.21777671790746
  C   0.13219591964445     -0.76700453505401     -1.26970982937881
  N   0.09000065512552     -1.80052855457120     -1.86038513672116
  N   -1.23990675629894      0.97926589222102     -0.40305785572903
  H   -1.22472648305102      1.36788792129916     -1.33640905412764
  H   -1.77513606134073      1.46742977503148      0.36800650602423
