17
Coordinates from ORCA-job run
  C   0.67400137193783     -0.05176817152941      0.04980886402668
  H   1.71209496546345      1.82657000069988     -0.16475590561573
  F   -1.39091100198173      0.20598873739327      0.04287880748760
  Br  2.87306787370731     -0.53561813299343     -0.41499874257971
  C   0.69786540581302      1.46892151838970      0.03258135231383
  H   0.34218514582679     -0.52537178986636     -0.85290530145578
  C   0.56274547813041     -0.79821069468647      1.35527983708240
  H   1.36134030277201     -0.53078088030023      2.04909045111158
  H   -0.41622839215536     -0.58106466161788      1.77374678811383
  H   0.63989122597819     -1.86797982412523      1.15655079918430
  C   0.15338660786730      2.11941071061507      1.28692109828057
  H   -0.88690655690520      1.82168068556210      1.38450628806075
  H   0.73251987684076      1.77615637498811      2.14758173723357
  H   0.23793955698184      3.20423862142249      1.22138856174237
  N   -0.05978222576786      1.94700578218611     -1.18261141483193
  O   -0.72725835031011      2.97307635314933     -1.08118962208691
  O   0.13192871580137      1.34800537071295     -2.23432359806740
