11
Coordinates from ORCA-job run
  C   0.56662351715366     -0.03530204178431     -0.00002550649392
  H   1.76784266908842      1.70833145532778      0.04760063671951
  Cl  -1.59767683614239     -0.06919855109347      0.00547184707973
  F   2.52640300670671     -0.25243445214761     -0.01705661939559
  C   0.70872329564648      1.47546738368683      0.00473694280913
  H   0.17762400300487      1.88438649387482      0.86402808438153
  H   0.25381017599091      1.87867481762839     -0.90011946776263
  C   0.71434583775692     -0.75897612843789     -1.24232739362946
  N   0.74943187527146     -1.30059085184539     -2.28552073636322
  C   0.72475631360248     -0.76044524320824      1.23991974360287
  N   0.77291614192047     -1.30270288200091      2.28223246905207
