18
Coordinates from ORCA-job run
  C   -0.19764279636191     -0.01276622017765     -0.39690007897988
  C   -0.01862502400616     -0.17734430868052      1.12784074292860
  Br  1.61346757086192      0.33731170677275     -1.20206421571470
  F   -2.31421260103024      1.06670817460008      1.85093874731594
  H   -1.04671785692876     -0.38152615837371      1.47609765210175
  C   -0.76916952089588     -1.30456097549283     -1.00654195852607
  H   -0.97197174551597     -2.03866489524059     -0.22276904303404
  H   -1.71358763152784     -1.08822223378136     -1.51185132003838
  H   -0.09093988337572     -1.76754855501243     -1.72263291823851
  C   -1.06718898049273      1.19554107639544     -0.69174545248671
  H   -1.34007696520182      1.21611893514289     -1.75059047876118
  H   -1.93144645728125      1.13975915603473     -0.01002883405387
  H   -0.54477432866041      2.12093431665703     -0.44697352849059
  N   0.34180741890634      0.99651962633134      1.89195998791315
  H   -0.58588004771655      1.43212944861307      2.02922681508103
  H   0.97084624352577      1.58689014498155      1.35992805367174
  C   0.86049708068653     -1.32153402497569      1.42230886246947
  N   1.54089552501464     -2.24945521379408      1.66166696684224
