17
Coordinates from ORCA-job run
  C   0.43637276739624     -0.09411542397036     -0.04915006758055
  H   1.56912153418291      1.64216340083765     -0.61218794065902
  F   -1.07406946366758     -0.21200686398889     -0.56015289178802
  H   2.23795548579073     -0.01997304291739      0.46620090185330
  C   0.61816477549969      1.43118033201284     -0.13337994066554
  C   1.10754635107416     -0.86519208806539     -1.08207093536907
  N   1.47518248996451     -1.55850505763530     -1.96426500283902
  N   0.17076159089727     -0.70769835720649      1.23727088453458
  H   1.03277107154062     -1.10886951590063      1.57217216739193
  H   -0.53616535181390     -1.41708659182243      1.08161885740632
  C   0.48717911526731      2.11635706918417      1.20570508527747
  H   -0.48271183411360      1.89767422423557      1.64728533234349
  H   1.27193525604860      1.72992528148706      1.85328547137415
  H   0.59578038690160      3.19825689757061      1.09196721512692
  N   -0.39876415796889      2.02722323628491     -1.10205435893669
  O   -1.39218050770596      2.60461931255331     -0.66677588768325
  O   -0.12789950929370      1.91175718734076     -2.29652888978697
