10
Coordinates from ORCA-job run
  C   -0.24462750591041     -0.02050838517514     -0.28702883198343
  C   -0.11437672405147     -0.02665278993945      1.17377021263249
  Cl  1.35216178968704      0.24443250554522     -1.31664539083639
  F   -2.57559570314472      0.49427811976574      1.34225865304314
  H   -1.42131603798761      0.11919600758088      1.42249801825231
  H   -0.86615543534132      0.80940918537470     -0.61834380394299
  H   0.34374854016132      0.89958540939518      1.52910230617964
  C   -0.79972057316302     -1.26528357912771     -0.81358690294165
  N   -1.23500695208062     -2.27136856163682     -1.23529447687532
  H   0.41289860183080     -0.90478791178260      1.55215021647220
