11
Coordinates from ORCA-job run
  C   0.53632755600496      0.33039887452732      0.00340778897103
  H   1.90050166372584      1.79214760576392     -0.63563735823621
  Br  -2.09450932107826     -2.26218938196311     -0.32385839566886
  F   2.70333983897975     -0.37504533781584      0.19879305088086
  C   1.23216455805572      1.62354293952018      0.20410721108791
  H   -0.08797841196599      0.20785752313580     -0.88200547047180
  H   1.83217252149313      1.60842055632935      1.10666841797587
  H   0.47140269098866      2.41756520141921      0.23229033723283
  N   0.34992773148516     -0.56864101924050      0.90489808147688
  H   1.16012581604349     -0.67942086014059      1.50921697103934
  H   -0.28456464373247     -1.34800610153577      0.66283936571208
