16
Coordinates from ORCA-job run
  C   -0.50825241072426      0.39127367606285     -0.05172555344597
  C   -0.36931970458867      0.08648047615675      1.33940207987414
  Cl  1.95250064582546     -2.74930735879854     -1.20531353353101
  H   -2.79979110578826     -0.05725768745332      1.04232280085924
  H   -1.61376856740775     -0.20655202570858      1.40823605653704
  H   -0.38066962848186      0.98966600192470      1.95502171548655
  N   -1.47550810223383      1.32896126964902     -0.38101358309925
  H   -1.39977811810678      2.09234383341450      0.28579555868410
  H   -2.36886255305585      0.78405480632985      0.03191747062315
  C   0.56317502717745     -1.00303234757740      1.81987380664049
  H   0.44316711364744     -1.92058710480103      1.24317484317288
  H   1.61388933797049     -0.71811003775797      1.72555731583331
  H   0.36082815165313     -1.22785551918330      2.87107329301150
  N   -0.21144091656989     -0.48776222348596     -1.00146385769389
  H   -0.49831548956304     -0.24170571939827     -1.93517145771430
  H   0.48103632024626     -1.25010003937329     -0.91757695523800
