15
Coordinates from ORCA-job run
  C   0.73603405771566     -0.08546738766597     -0.11476198470337
  H   1.78125433916969      1.60502525419473     -0.81933617411803
  F   -1.03683074561099     -0.04492451589218     -0.29326868554796
  F   2.38523782009445     -0.16946919123876      0.34298976225714
  C   0.87126161601626      1.41443158643815     -0.25909380130234
  H   0.89561267912158      1.86788487601110      0.72552227808814
  N   0.88734672915601     -0.95808027558325     -1.20675118435530
  H   -0.00189411838680     -1.40934297983416     -1.35660586511644
  H   1.61226483481447     -1.62079763656453     -0.97611924862276
  N   0.41550701442590     -0.63691481072653      1.27129836107610
  O   0.27303163288818      0.15061954754262      2.19658889964324
  O   0.34087289852747     -1.85578258785495      1.36469528191120
  N   -0.22228168949732      2.08314973461341     -1.01687061726092
  O   -0.96902323739658      2.84063401180580     -0.39935742135469
  O   -0.25612383103801      1.90174437475448     -2.23048960059405
