18
Coordinates from ORCA-job run
  C   -0.23271838573225      0.03260054516420     -0.37518011261177
  C   -0.03034877071943      0.05843971579438      1.10217762513864
  Br  1.59927146024504      0.03295694487150     -1.37842529682518
  F   -2.55636025618798     -0.11681211249743      1.39033672493821
  H   -1.41133840786858     -0.03186599133298      1.39902449939484
  N   -0.90667191904327     -1.15649804785065     -0.86495719168251
  H   -1.78840289120193     -1.15642600071515     -0.34872019843836
  H   -0.38538695614753     -1.96758045782651     -0.54335344669035
  C   0.57614506237492      1.31988322891787      1.69619361539077
  H   -0.10372560726341      2.16849637539864      1.58211458684566
  H   0.74782877234294      1.18557402578184      2.76791375115649
  H   1.53555923589374      1.57743973160730      1.22667642687053
  C   0.57851385003001     -1.14182937120424      1.59347469213171
  N   1.04881064594447     -2.13844532468710      2.01807107977037
  C   -0.95662831745199      1.26030033857280     -0.89637589972960
  H   -1.12676437187135      1.14438407528146     -1.96704696948334
  H   -1.91188799924243      1.31067997701226     -0.36688516478659
  H   -0.38774514410097      2.17298234771180     -0.71919872138952
