14
Coordinates from ORCA-job run
  C   -0.56664005132431     -0.07750631072246     -0.07402735992624
  C   -0.12733000150658     -0.16051101952563      1.21853885130355
  Cl  1.56753472816938      0.72023327624985     -1.51542187908531
  Br  -2.96466056987365      0.07651320618049      2.48288587062819
  H   -1.51144992126210     -0.12057150444410      1.58081844216470
  H   -0.83293642419933      0.90670059435429     -0.44179929373235
  H   0.13079791610551     -1.14563454155832      1.61207705991293
  N   0.48673163075422      0.95112976769377      1.87144351832479
  H   -0.17640712691790      1.46633455051489      2.43819512911073
  H   0.88479822439714      1.55107501562949      1.15644107506201
  C   -1.04851892196412     -1.25021369234400     -0.85136707325690
  H   -2.14574250609069     -1.26624265336303     -0.85057586132679
  H   -0.69938349766272     -1.16107966858967     -1.87975264277480
  H   -0.68232347862485     -2.18811702007558     -0.42987583640452
