18
Coordinates from ORCA-job run
  C   -0.20522007604400      0.07828742691493     -0.35116472270976
  C   -0.05678401409091      0.09351023533412      1.19461689711942
  Cl  1.47743225291429      0.29636372161896     -1.11525259008094
  H   -3.09776928576781     -0.04743727826796      0.41976365818372
  H   -1.10639349792649      0.11978764162069      1.51664297703587
  N   -0.79654378229069     -1.12506471605494     -0.83413900204388
  H   -1.77534236392692     -1.08716834745847     -0.49582003666372
  H   -0.32682153607275     -1.93309261518657     -0.44341043712983
  N   -1.03352979427522      1.15510107784368     -0.77966578041704
  H   -0.73114463804434      2.02137334477176     -0.34907378888820
  H   -1.98876745009678      0.90618535907655     -0.41682771778847
  C   0.77173543241942      1.20497115299822      1.81041077864805
  H   0.42658917876088      2.17451415540410      1.44826056473677
  H   0.66008255595384      1.19207276802548      2.89832501750076
  H   1.82340005795117      1.08772611749857      1.54893693004833
  N   0.46431604124147     -1.19608997155534      1.75243412044124
  O   -0.20697166662067     -1.74051925596160      2.63104553033761
  O   1.53942258591549     -1.62818081662221      1.33360760167009
