9
Coordinates from ORCA-job run
  C   -0.15771324396105      0.02243404240598     -0.31971647204331
  C   -0.10167340253228     -0.02442032101465      1.12985453445337
  Cl  1.53667516087706      0.10458519986088     -1.30265281814614
  F   -2.64217225378904      0.11065434216829      1.34010347571380
  H   -1.45048711223194     -0.01233300805970      1.33268151435569
  H   -0.60074271687048     -0.86717176028992     -0.76239182756967
  H   0.32187636963613      0.87787170450591      1.57800863517857
  H   0.37586347417717     -0.92597366030182      1.52218420101473
  H   -0.65554627530557      0.91236346072504     -0.69746124295703
