16
Coordinates from ORCA-job run
  C   0.64900578871487      0.00861624033452      0.09948178876617
  H   1.50076097538138      1.66122818887003     -0.91305692202324
  Br  -1.39549753222317     -0.74299141847753     -1.28438388237253
  Cl  3.06479665830841     -0.17522660731932      0.67521470577156
  C   0.74186774476771      1.52758940560093     -0.13203563126775
  H   1.05428584135954     -0.65623229904398     -0.63476027936543
  C   0.10670979195142     -0.50698762994295      1.39481794029776
  H   0.76339449912956     -0.20699402566210      2.20952248596854
  H   -0.87877068818010     -0.07842830803142      1.58236991289876
  H   0.02162488826898     -1.59183375783308      1.36529367206575
  N   1.08998351275377      2.17015463404629      1.13006652755035
  H   1.13909350266393      3.16337097828180      0.93473810614184
  H   2.00858087343827      1.83912947377150      1.40331726900039
  N   -0.46402599429797      2.21962701290068     -0.57256291562633
  H   -1.16187966629476      2.08061136028230      0.15198977050695
  H   -0.82447019574182      1.73933675222230     -1.38857254831282
