16
Coordinates from ORCA-job run
  C   -0.10822323983100     -0.02026599039747     -0.37569519646187
  C   -0.15663394882260     -0.01109485283196      1.10361154710012
  Cl  1.62381297261407      0.08297274931809     -1.12126549656158
  H   -2.52668038006332      0.25578560934361      2.15718451840400
  H   -1.31062688994669      0.06028763715471      1.42111863412299
  C   -0.71617208771949     -1.20305595730157     -0.97821003179402
  N   -1.21367740100374     -2.15049068645455     -1.46377124668429
  C   0.42293814264454      1.26164478032673      1.68882435191285
  H   0.03941450575975      2.14329920016515      1.16367108145548
  H   0.08881804277936      1.34150886491789      2.72844027162932
  H   1.51859970182111      1.28449821391004      1.65347206032476
  C   0.38993868627329     -1.25733219067531      1.76713421363538
  H   1.48409762377000     -1.31884046858949      1.70979671944249
  H   0.09153084855301     -1.24221756070536      2.82069928240323
  H   -0.03206201375866     -2.16591105579804      1.32706342008876
  H   -0.58888456306962      0.87336170761754     -0.78249412901763
