17
Coordinates from ORCA-job run
  C   0.14299922987548     -0.10264810845206     -0.01319180058565
  H   1.65658965858499      1.23579157893031      0.06766759395179
  Br  -1.83904288890917     -0.24393205069927      0.21847217541652
  H   2.74224639938149     -0.05007956303446      0.26273868058464
  C   0.54237599642923      1.38056006326130     -0.01685597379761
  C   0.48320012266538     -0.80577384793787     -1.32010746253222
  H   0.21520618033450     -1.86164080685318     -1.24441018940312
  H   -0.06198281811158     -0.36154775216965     -2.15389535676028
  H   1.56467039914404     -0.71259094027371     -1.44507008527488
  C   0.76134411219872     -0.80789050717704      1.13244051397796
  N   0.77279218684275     -1.48084088430158      2.10796262707178
  C   0.07840371047536      2.08010718348115      1.17245862667212
  N   -0.26006796130526      2.71320229634401      2.10437505584449
  C   0.18018941386275      2.15386068635153     -1.28107943564946
  H   0.75520557437577      1.77661025475143     -2.12882801807208
  H   -0.88708595016157      2.08637761802469     -1.51087683242522
  H   0.43569663431712      3.20797477975439     -1.14804011901878
