12
Coordinates from ORCA-job run
  C   -0.76815497093152      0.36053308987562     -0.32857015043254
  C   -0.02697489868076      0.32993183768315      0.87537668646803
  Br  1.69104831653224     -2.65488644320624     -0.21983956820760
  H   -1.56199073731643     -1.31756384545882      1.17864274184630
  H   -0.92253448740146     -0.50382986981010      1.45261634698752
  H   0.78408193249910     -0.40176023039172      0.89977904793350
  N   -1.12169611328036     -0.81710840225816     -0.89517182971786
  H   -1.67407539863188     -1.31012391066610      0.10782183265649
  H   -0.30077963221169     -1.44968907541014     -0.82691424969275
  C   -1.64347434113395      1.48483602950556     -0.56397010858652
  N   -2.32992736026100      2.42377713339874     -0.74895287850120
  H   0.13373769081771      1.25808368673820      1.42235212924663
