18
Coordinates from ORCA-job run
  C   -0.06577481568736      0.04311157165374     -0.40005979723441
  C   -0.02932372059441      0.02097093343169      1.11348865093072
  F   1.25263607098392      0.03702475997790     -0.93051571469907
  H   -2.51192014427675      0.10873097809129      1.34460441549826
  H   -1.30189964664011      0.11973642473223      1.34336609016297
  C   -0.77585880839104     -1.17019731962074     -0.95775178099131
  H   -0.20507211745083     -2.07651169103661     -0.74852381449296
  H   -1.76444565558058     -1.24358230036672     -0.49488832009694
  H   -0.87450057355945     -1.04637035727711     -2.03775697151441
  N   -0.69815729880958      1.23988369698316     -0.91959175591923
  H   -0.20854523886171      2.03652573333151     -0.51931395466642
  H   -1.63169263261311      1.24463964028210     -0.50231300351921
  C   0.42914297657364     -1.27646743363413      1.76135789623726
  H   1.35161608916474     -1.67221012424441      1.31982499812689
  H   0.60286495006879     -1.12550471184575      2.83055714671562
  H   -0.35986363452844     -2.03112170543140      1.66646344768929
  C   0.62391453113443      1.18317426373862      1.63938130643819
  N   1.10297966906785      2.16458764123464      2.09077116133477
