14
Coordinates from ORCA-job run
  C   -0.17310279406691     -0.03693767706064     -0.32845057687997
  C   -0.13932884350521     -0.06257548645429      1.11451190494630
  Cl  1.66274724515777     -0.00409795496543     -1.19105070430878
  H   -2.52787619167221      0.50639023046515      1.44198989336491
  H   -1.44581874307551      0.06856422931980      1.33074784245521
  H   -0.53011377978989     -0.97363749110195     -0.75946474545427
  H   0.22935215379405     -1.00611140290701      1.52604417370872
  N   -0.86473577629081      1.07552734368881     -0.93010224006011
  H   -0.36028975809454      1.92146139734150     -0.68683319231381
  H   -1.75022267253309      1.11912497980833     -0.40218292317533
  C   0.39013986665186      1.16868890939021      1.81478454351948
  H   -0.33727595351279      1.98762275824612      1.73840165969357
  H   0.52270994901955      0.97103710422657      2.88309914832515
  H   1.35083529791773      1.50975306000282      1.41001521617895
