15
Coordinates from ORCA-job run
  C   0.04224662147157     -0.00047169659894     -0.23182466142133
  C   0.02603616573874     -0.00337811587914      1.29374146369787
  F   1.21275170390071      0.58727799045905     -0.65936050225179
  H   -2.11000624567320      0.32473129230530     -0.14987497538219
  H   -1.01190357249397     -0.20425795520255      1.59310009087445
  C   -1.22443799092907      0.85238540655333     -0.71024830851053
  N   -1.23882379262680      1.75005971749919     -1.53908138209062
  C   0.48560913582689      1.26487882466565      1.84464293244584
  N   0.80563595876972      2.27764351564873      2.34438765364789
  N   0.84060821286514     -1.11744838925673      1.87937717295354
  O   0.25825382818146     -2.19874015999003      2.01136777546200
  O   2.02935880435813     -0.91682284581357      2.11778815163140
  N   -0.01152888597659     -1.34430213544488     -0.74437380340874
  H   -0.54331122220720     -1.31710337868075     -1.60747019114336
  H   -0.46543872120551     -1.98212207026467     -0.10449141650443
