12
Coordinates from ORCA-job run
  C   -0.23071989977654     -0.56691062491972      0.34427628410244
  C   0.26339214678905     -0.21250267419167      1.54960225115540
  F   0.31725290511104      1.30779674287309     -1.27181811540576
  Cl  -3.01852022041542      0.51096349137270     -0.15963880990156
  H   -1.65998050949043      0.21869654173225     -0.06534713294603
  H   -0.46645065479855     -1.62908033430446      0.21324826281727
  H   -0.00591532696675      0.32865849865597     -0.60345267744328
  H   0.41212282314070     -0.93697685586324      2.36081207882209
  C   0.64367921462146      1.21456615613004      1.84354021590041
  H   -0.03844707249930      1.67249620502046      2.57135952452698
  H   1.65480744414387      1.28027995743386      2.26476093606705
  H   0.60817915014083      1.77250289606071      0.90658718230495
