18
Coordinates from ORCA-job run
  C   -0.16145580308102      0.02617265534332     -0.35496186254798
  C   -0.17617217810901      0.02996260971760      1.10374451367533
  Br  1.81624844299906     -0.03052111898502     -1.20208785873856
  H   -2.69408610946831      0.25259177591292      1.67141821924917
  H   -1.37944492677994      0.06699623150776      1.33278918662151
  H   -0.51872151559747     -0.92998353792080     -0.74515204651362
  C   -0.86969216716103      1.18074380282065     -1.01308428073799
  H   -0.96233675270964      1.03498914372177     -2.09146753728936
  H   -1.86796473668367      1.22747952473663     -0.55007620285526
  H   -0.35683583954903      2.12712151914077     -0.83738830858296
  C   0.36601731869762     -1.23306596896588      1.73820321288484
  H   1.46215955028529     -1.27516480969757      1.69442182030039
  H   0.05547001968639     -1.28482904964496      2.78812762494255
  H   -0.02627477342159     -2.12390137851232      1.23538316515660
  C   0.35447126096093      1.28273413794732      1.76985442913077
  H   -0.16906977360695      2.17612725570167      1.41956351118753
  H   0.17692763686857      1.22000487907799      2.84891108115771
  H   1.43082034666979      1.41211232809818      1.59716133295929
