15
Coordinates from ORCA-job run
  C   -0.26764630795079      0.03863853425813     -0.24521539004263
  C   -0.16657251187567      0.13865342242022      1.29011379510860
  Cl  1.38774166789740      0.19036112222247     -0.96786540564298
  Br  -3.54669479759005     -1.43025867085049      1.29874531404481
  H   -1.20158739158836      0.16032576650886      1.64619538162323
  H   0.23378530686585     -0.83151427002993      1.59989454590795
  N   -0.87493698909307     -1.13115532950116     -0.74868890153827
  H   -1.79376397269688     -1.25062287083305     -0.29376278386712
  H   -0.30411967273810     -1.92563664058686     -0.48436594344930
  N   -1.05308909705838      1.24683470730902     -0.79954081206632
  O   -0.78011933877131      2.34283897029845     -0.31051990398220
  O   -1.87876825531379      1.05204988914266     -1.67695783075573
  N   0.61276256708428      1.18596853046446      1.91978523305586
  H   0.22418577275723      2.07968451427847      1.65161715065928
  H   1.55989302007169      1.15775232489869      1.56238555094479
