13
Coordinates from ORCA-job run
  C   -0.27164832998322     -0.04721879500077     -0.22680082335753
  C   -0.11901235933146     -0.10044628229213      1.20538937258575
  Cl  1.48524606656975      0.25225166273108     -1.20867603328584
  H   -2.57483683673453     -0.00207150387415      1.58882991546314
  H   -1.43998095578201     -0.10309799238000      1.47457621260708
  H   -0.76684079005041      0.87246995196390     -0.54694497864237
  H   0.28597575222060     -1.05291773677677      1.56815678525442
  N   0.43189774107943      1.05274416466528      1.88719793042710
  H   -0.30583597222027      1.74740854331134      1.97391768104887
  H   1.17324302054554      1.45992637401477      1.32443059409301
  N   -0.90493984077842     -1.17096824901845     -0.83882910501557
  H   -1.89036410937225     -1.08121481935718     -0.57546980022886
  H   -0.55875338616277     -2.00782531798693     -0.37969775094919
