18
Coordinates from ORCA-job run
  C   -0.18291552495748      0.05085181585588     -0.30701645016971
  C   -0.16018269489234     -0.08618365823157      1.15810247012440
  Br  1.77343094921355      0.08741222537516     -1.14718014587681
  H   -2.46817151915870      0.69808745353077      1.82621945933551
  H   -1.33082665935422      0.01563809750188      1.42867938767100
  N   -0.81853672911079     -1.14918372659112     -0.99376014503040
  O   -0.93927707365135     -1.11082149761712     -2.21586021532978
  O   -1.22941205488080     -2.07095618010249     -0.28865535430731
  C   -0.90943184968585      1.27784434840293     -0.77383773706521
  H   -1.06796114766610      1.25310824395000     -1.85055157880815
  H   -1.86562471016265      1.29930474451209     -0.21822469768514
  H   -0.34944278302643      2.17355114596757     -0.51177740428166
  N   0.48682785533576     -1.28571042141304      1.66572567188204
  H   -0.20349214815020     -2.02073519696744      1.75093651352518
  H   0.80827429256338     -1.03359781303807      2.59180637446091
  N   0.36581315757405      1.08196302446062      1.82620797483121
  H   1.06023603086996      1.55763158756377      1.26176400101428
  H   -0.42604739085979      1.69598580684015      2.01756187570965
