17
Coordinates from ORCA-job run
  C   -0.20459136033551      0.01134065247446     -0.38773423923566
  C   -0.10447765015577      0.16328203882490      1.14333127495550
  Cl  1.46203358457460     -0.01991027092865     -1.12127208360498
  H   -2.66345931058434     -1.19834468545794      1.04226825978385
  H   -1.16569892361037      0.26888290076948      1.44730018817700
  N   -0.97839273264388     -1.06033128007844     -0.80950708879725
  H   -1.79946497706835     -1.17919235991679     -0.07747483380768
  H   -0.42409592911101     -1.90774101265443     -0.79933169743059
  C   0.69837071300393      1.27816622122320      1.63304294061267
  N   1.36426542866834      2.10082188489789      2.14510933352235
  C   0.37282403137901     -1.14379866719143      1.78153098045299
  H   1.30600961572933     -1.48879223162204      1.33035967322490
  H   0.53748758072091     -0.99048486265868      2.85053532675541
  H   -0.42198708399945     -1.88046679584077      1.65813110588784
  N   -0.85113940878028      1.32811572150260     -0.93291368942672
  O   -0.28482514211202      2.37654639745005     -0.63501416375419
  O   -1.87974843567516      1.23205634920662     -1.58487128731544
