11
Coordinates from ORCA-job run
  C   0.60718803249731     -0.02781758242680      0.03473274621941
  H   1.69386376388470      1.83053367534287      0.06730953821113
  Cl  -1.69278371036033     -0.06174664076610      0.38385487920227
  Cl  2.86275204292755     -0.42440706149661     -0.28512875731098
  C   0.66892222605547      1.46751768924680      0.00494213131684
  H   0.43119456553073     -0.58143406104290     -0.86516181097875
  H   0.70058053529142     -0.52841402424554      0.97820142221586
  H   0.06248307454778      1.91527334518521      0.78567684997215
  N   0.14443539206164      2.03907167905985     -1.27382146697855
  O   -0.19555002051629      3.22061155191507     -1.22869665136408
  O   0.14872409808002      1.34625142922818     -2.28349888050528
