11
Coordinates from ORCA-job run
  C   0.50184385548488     -0.06289157883019     -0.04985910924692
  H   1.80459211501325      1.35096705135255      0.95383166591153
  F   -1.02228219248344     -0.10706987424416      0.61544703811842
  H   2.16424474180533     -0.07005324683263     -0.79603242227156
  C   0.94182091772802      1.34208609356471      0.29620476970833
  H   0.19000009346205     -0.26394757003583     -1.05913794222747
  H   0.90013323901645     -0.87692186967941      0.52908209267057
  H   1.11980742391780      1.94517730642310     -0.58789851949490
  N   -0.13131493261967      2.10632698230239      1.06651539136649
  O   -0.93826537045266      2.77025433660825      0.41853853247025
  O   -0.09682989087199      2.06077236937119      2.29498850299527
