17
Coordinates from ORCA-job run
  C   0.18124570919663     -0.11590457039134      0.00883314830064
  H   1.61119141355101      1.31030422371813     -0.08340025832161
  Br  -1.79077383747004     -0.37396520009903     -0.20505429299402
  H   2.76819455603683      0.09384863496384     -0.29278204697137
  C   0.49177316560478      1.38845700919457      0.02070317598154
  C   0.83014242892712     -0.77403969523833     -1.14826114795205
  N   0.87073828850939     -1.43786605691982     -2.12931924739371
  C   0.57519810397804     -0.80799276947919      1.30657508008185
  H   1.64983552523969     -0.65009113543007      1.42458222875879
  H   0.01085035055752     -0.40542486435325      2.14873530615779
  H   0.37160454773918     -1.87757779290245      1.22314595013185
  C   0.10639865724623      2.12701885278036      1.29868129980372
  H   -0.95148357423760      1.99610899474428      1.54416088730342
  H   0.71573315378906      1.77496869213256      2.13316660774898
  H   0.29901652335749      3.19533268039187      1.17303898915518
  C   -0.03287702282053      2.07059844168884     -1.15327460304541
  N   -0.42125798920478      2.69278455519902     -2.07303107674560
