16
Coordinates from ORCA-job run
  C   0.75919488037493     -0.00778164179150      0.03185270597163
  H   1.62900046791374      1.96664969726963      0.18032916573844
  F   -1.23751353152373      0.06127851970948     -0.14877004062715
  Br  3.15027309541714     -0.11728019627405     -0.04166196423306
  C   0.64127300663218      1.52574417911573      0.03843270257022
  C   0.63843789338723     -0.70726246190171     -1.22440356723588
  N   0.56828503312591     -1.33950375304057     -2.21496689818074
  C   0.63892952662421     -0.79174098117095      1.32133378768617
  H   1.04564402121281     -1.79245428420693      1.18025447315044
  H   1.20542344071095     -0.30219060101588      2.11376973445023
  H   -0.41648165780057     -0.84074606751003      1.57875216856575
  C   -0.16596063189366      1.93772770646828      1.21142345075940
  N   -0.71732724982568      2.39101244831831      2.14519380199544
  N   0.11102263359955      1.99186025503431     -1.22862537748951
  H   0.04239582106120      3.00240555466536     -1.21494592227992
  H   -0.81581674901621      1.57812162633048     -1.28778822084145
