16
Coordinates from ORCA-job run
  C   -0.19055359128000      0.01519038496881     -0.37520639965397
  C   -0.06283517015632      0.05419949586850      1.18221982636691
  Cl  1.46184045061885      0.06210587393983     -1.13703964134167
  H   -2.82958502528187      0.09180917707943      0.84242309006432
  H   -1.15155581246244      0.11667046359245      1.46369705865078
  N   -0.89496932436411     -1.15326788452809     -0.79562664311299
  H   -1.82141778774798     -1.06812627580065     -0.34451844242164
  H   -0.42591346294433     -1.98405404975106     -0.45120291502924
  N   -0.92907996112747      1.16117224075184     -0.80065118103473
  H   -0.47522569594244      2.00497146858209     -0.46522787727440
  H   -1.85041886210948      1.05852690600262     -0.32943850877055
  C   0.70955335541820      1.16866559686752      1.69230326484568
  N   1.30199555392695      2.10033918736154      2.09789083763070
  N   0.45488147703137     -1.21291941464539      1.80389629957127
  O   -0.24860841047482     -1.72602500797669      2.67250672033750
  O   1.52867226689590     -1.66288816231273      1.40643451117202
