20
Coordinates from ORCA-job run
  C   -0.32317853081743      0.00165261393038     -0.27547295206310
  C   -0.15749772619389      0.00909426467187      1.14961614841128
  Br  1.76881193784123      0.08460355822624     -1.27451559786380
  F   -2.68836268988880      0.35756684392700      1.31087820370382
  H   -1.50018404699449      0.10849618027039      1.33340264448666
  C   -0.87718461672724     -1.26089806798478     -0.89218311848144
  H   -0.27126536909015     -2.13664826936020     -0.66490556418851
  H   -1.88617286439299     -1.39034324787593     -0.48255898162790
  H   -0.93487979565802     -1.13105494049272     -1.97164511651258
  C   0.40170888587912      1.28093691627150      1.75365557026466
  H   -0.19584970952566      2.15609245760686      1.48749282866002
  H   0.39327320275988      1.21397840410178      2.84650572929970
  H   1.43711599919620      1.45204984700446      1.42430111473257
  C   0.42986576168532     -1.24274142455827      1.76675322419965
  H   1.44605611690204     -1.42743426105759      1.38746094951855
  H   0.48873354897461     -1.13710649890959      2.85541538389209
  H   -0.17456019533269     -2.13040839293772      1.56426289775167
  N   -0.94710274940704      1.15518820049818     -0.88564420335294
  H   -1.83143180332216      1.23009351433525     -0.37492562871222
  H   -0.39574535588785      1.97570230233291     -0.66583353211817
