18
Coordinates from ORCA-job run
  C   -0.15667060742299      0.00600483611174     -0.28175852956839
  C   -0.08441871434350      0.08829428094836      1.18660442131551
  F   1.16710461495501      0.02924756107055     -0.92731036605481
  H   -2.33457233537632     -0.81304889775823      1.85299638436600
  H   -1.60463401681350     -0.30031363476618      1.62921687658639
  N   -0.74632854558256     -1.23297546208539     -0.70312575812865
  H   -1.14678292921282     -1.07947746633309     -1.62127753897482
  H   -1.48881407286419     -1.46555238249450     -0.04944690942075
  C   0.54230172044445      1.35756617663166      1.71958191146527
  H   -0.00351080854249      2.26240005395935      1.42087105515611
  H   0.53368257539962      1.31944867354751      2.81338766416705
  H   1.59775082348033      1.49230505564054      1.41219729607942
  N   0.51812427682636     -1.08884314081516      1.80337497202199
  H   1.10234827704832     -1.57438072897104      1.12796349637008
  H   -0.23068093641451     -1.74188988113900      2.05021088317339
  N   -0.79864851483999      1.14911915078666     -0.94792832379938
  H   -0.14935468963584      1.92594255035303     -0.89094908304389
  H   -1.59481611710542      1.39039325531317     -0.36514845171054
