15
Coordinates from ORCA-job run
  C   -0.17521317695744      0.06713384730676     -0.26383377050533
  C   -0.32654029453167      0.05876982936758      1.25603418859884
  F   1.20501254709291      0.14696747352030     -0.57372135591148
  Cl  -3.93735309436856      0.41867652142987      0.68044264576843
  H   -1.39970934813319      0.12166737522541      1.46212121570041
  H   0.04675450949199     -0.90158426769337      1.62835603687346
  C   -0.61982140301015     -1.21964377290844     -0.82745131351798
  N   -0.88958635207562     -2.26627380056228     -1.28537188121516
  C   -0.88588105480979      1.22920909600833     -0.92016102084582
  H   -0.71153410465216      1.21387449384188     -1.99804985126649
  H   -1.95454025581182      1.15521962120076     -0.69404582369702
  H   -0.50875908034724      2.16832075807096     -0.50871951108555
  N   0.40852870799663      1.17613137017726      1.87919519239204
  H   0.91620891573556      1.68551077586598      1.16711249671191
  H   1.11363348438058      0.79445067914903      2.49504275199980
