19
Coordinates from ORCA-job run
  C   -0.16913170529009      0.04496360005529     -0.34153157607752
  C   -0.29103223640550      0.13744184282455      1.17452004373738
  Cl  1.56733269078850      0.19101876914664     -0.90625718647737
  F   -2.98954022061242     -0.03376291502703      0.71753150585943
  H   -1.39844832689715      0.14152708346107      1.32692956670944
  C   -0.76774160859760     -1.26177996931315     -0.82504104288164
  H   -0.20222171857482     -2.12468256245458     -0.46881157268246
  H   -1.78966611331132     -1.25045901023670     -0.42103776810725
  H   -0.78686371167828     -1.28347168697605     -1.91768286132781
  C   -0.94664918866512      1.21797844547486     -0.91769708768061
  H   -0.92895454762148      1.17038650577948     -2.01023571274234
  H   -1.96591058204832      1.09147888934043     -0.52804157682338
  H   -0.51770621895430      2.16413352592794     -0.58726648922568
  N   0.36630249509081      1.28083979364273      1.73281751000017
  H   1.37296461634091      1.17855399073356      1.66915784249077
  H   0.09047007714888      1.39755330927344      2.69924046901561
  N   0.19934856827372     -1.12213572672277      1.88050243230485
  O   -0.49500659138807     -1.53651545734362      2.81096252243782
  O   1.29400432240168     -1.60150842758610      1.57311098147055
