16
Coordinates from ORCA-job run
  C   -0.11138978997458      0.12474474915504     -0.31009267025308
  C   -0.07961201023713      0.09257649240305      1.15441620231394
  F   1.23312048357725      0.11846463223079     -0.93767968849099
  H   -2.15919725907263     -1.03102726233054      1.67201970843253
  H   -1.42271912561475     -0.35249763578733      1.47326504254275
  N   -0.78640900808440     -0.99743889532185     -0.93541216740982
  H   -1.45868802285044     -1.34397749242649     -0.24689617803116
  H   -0.08589283999302     -1.71750398884742     -1.06028942023335
  C   -0.70245829082642      1.39282877328018     -0.79743141119471
  N   -1.18049015527585      2.40051880644242     -1.16812485434879
  N   0.30842306300223      1.31775813847636      1.83041269333381
  H   -0.43790132014532      1.99879060256160      1.76083392780752
  H   1.14091401270412      1.72893217795759      1.41317537162029
  N   0.57383037389027     -1.08238504873904      1.67284063674868
  H   -0.14405331684943     -1.77368588353902      1.91367961415571
  H   1.21025320575008     -1.49551816551537      1.00128319300667
