11
Coordinates from ORCA-job run
  C   0.07594811335475      0.15530088245750     -0.31688937398125
  C   -0.98148851290322     -0.01150328459304      0.78055088411837
  F   1.27042644855383      0.63317165044244      0.21823582221048
  Br  -3.15626964785992     -0.38510927840583      3.28849099017597
  H   -1.32114414727035     -1.03824146642771      0.89208231750839
  H   -1.85936515046990      0.60964927574258      0.62039805607793
  H   -0.54328153210702      0.28657904592225      1.73193838880940
  C   0.39132438835670     -1.12210184292907     -0.98807237997350
  N   0.65455571546426     -2.13846725160024     -1.51316045798117
  C   -0.34389968841806      1.12013213951126     -1.35350287469096
  N   -0.69028598670104      1.89071012987990     -2.16852137227364
