19
Coordinates from ORCA-job run
  C   0.11623355776563     -0.09922909324728     -0.05855884578605
  H   1.60542799091389      1.30741651450579     -0.48864160289980
  Cl  -1.74589970919225     -0.12742509286722      0.13819978935756
  Cl  3.66592469482756      0.62300167676397      1.35617394966602
  C   0.54656235980853      1.37624191365596     -0.21053089021465
  C   0.43940546911335     -0.90976653100596     -1.33386737898745
  H   -0.44403224772698     -1.36073347056422     -1.78624701973421
  H   0.92088538978072     -0.27717226053032     -2.08248208055605
  H   1.14942958099469     -1.69988278816907     -1.08236517330011
  N   0.65425695330157     -0.62394435821692      1.14979680351442
  H   1.62016357747839     -0.29950165264088      1.27657174740741
  H   0.64252444336308     -1.63591025242524      1.13892316345195
  N   0.50296812294244      2.14997792335414      1.02167774444342
  H   1.34207698809218      1.92892588397814      1.55027388169160
  H   -0.29045700196029      1.83862662668034      1.57235840690786
  C   -0.22028627756815      2.12253663003971     -1.29816218359943
  H   -0.31337900082017      1.55862180093225     -2.23029008723658
  H   -1.22337215732095      2.36612515527807     -0.94495586699657
  H   0.30167726620676      3.05972137447873     -1.50109435712930
