16
Coordinates from ORCA-job run
  C   -0.04205176774720      0.04572069958081     -0.33666633624162
  C   -0.13560772091567     -0.00169304326060      1.19259565124633
  F   1.31814685695704      0.00860687077771     -0.66561700453384
  Cl  -3.42327556527945     -0.96058587603968      0.89959622548304
  H   -1.20450220146436      0.06071657483850      1.42508647115156
  H   -0.43727954177674      1.00219626554557     -0.68149318263490
  N   -0.71200808767598     -1.00917521658021     -1.02039538971927
  H   -1.70497084169396     -0.94786719564165     -0.78243529837388
  H   -0.40061329604170     -1.90209705404184     -0.65523875731961
  N   0.46013654430308      1.28383984144961      1.71407612750617
  O   1.42101570862826      1.26335144928744      2.48237836693842
  O   -0.07490441774278      2.31758268844308      1.31346880733801
  C   0.50270462336246     -1.23223897058848      1.81626956943581
  H   0.79799655219829     -1.95478860508223      1.05439536677468
  H   1.39858958859371     -0.95705849939568      2.36848924136430
  H   -0.20380643370492     -1.71854992929238      2.48881014158480
