14
Coordinates from ORCA-job run
  C   -0.20670097235208     -0.13145819694108     -0.36840631962909
  C   -0.25451342626588     -0.37772819234988      1.19659278407204
  F   1.09557143928502     -0.45318202832256     -0.77393815221947
  F   -2.81685836259980      0.53176191269238      0.34209144230425
  H   -1.05749876475243     -1.08206003912331      1.41323090514606
  H   -0.57103095025393      0.54448794464907      1.68351565416554
  N   -1.13200087001752     -0.95886349069223     -1.07624445626537
  H   -2.03951710840612     -0.59205301954380     -0.72946042099693
  H   -1.02443523109845     -1.90920899027103     -0.73744130388259
  N   -0.47676758653503      1.22914961612864     -0.71181701018419
  H   0.10135805694515      1.82092007806073     -0.12436810537892
  H   -1.46295630111963      1.32642489412279     -0.40167674960945
  C   0.99411610641027     -0.84943332533031      1.78538458083130
  N   1.98408397076040     -1.23289716307937      2.28796715164679
