15
Coordinates from ORCA-job run
  C   -0.09343822766730      0.03919994614418     -0.37270447608101
  C   -0.08830137825640      0.03199526330413      1.08808204738593
  F   1.22563111252112      0.02700962416523     -1.00646260646532
  H   -2.21916755409193     -0.52814298210848      2.13479307716971
  H   -1.33155741134857     -0.13424894897500      1.52395909449401
  C   -0.76878130680759     -1.14740418600581     -0.92580377515344
  N   -1.31291077252926     -2.08737538511702     -1.37369594313299
  C   0.41193168703600      1.31283578883059      1.71717692292153
  H   -0.01597932247472      2.19722640758205      1.22689797555496
  H   0.09353798165684      1.32611718162701      2.76663908667914
  H   1.50647056936103      1.39949493245992      1.69671504627595
  N   0.50617949479598     -1.14831823137108      1.69669560557961
  H   1.06049016633601     -1.67701923256349      1.03440204658681
  H   -0.26531870570757     -1.73572417892035      2.02537084779259
  H   -0.56347633282363      0.94389400094812     -0.77372494960748
