14
Coordinates from ORCA-job run
  C   0.45858662865757     -0.06775955475272     -0.02995199566961
  H   1.73127937747264      1.67760824304962      0.21462467541007
  Br  -1.83742917064053     -0.05363477641667      0.16811700747852
  H   2.14576775244399     -0.41823292508274      0.36228835899372
  C   0.68560556202787      1.45541019712253     -0.01223445174297
  H   0.05861717369866      1.88714399171217      0.77199071393492
  C   0.57150177895142     -0.80358186933072     -1.36010083935182
  H   0.29187861687183     -1.84738692250817     -1.20291606656634
  H   -0.13084036268938     -0.36401131319224     -2.06781773034660
  H   1.57501699707655     -0.75648830402472     -1.78592182286452
  C   0.99902970426495     -0.72433007390965      1.15314279541243
  N   0.95089979352855     -1.25251605384248      2.22481340813110
  C   0.36517059046886      2.10331275900878     -1.28111288506533
  N   0.15655555786704      2.64344660216699     -2.30293116775358
