20
Coordinates from ORCA-job run
  C   -0.19777410333354     -0.04918025142008     -0.27639463699961
  C   -0.10140483834265     -0.04853435049638      1.17117942491086
  Cl  1.70511644738595      0.01623955386576     -1.13686118560797
  H   -2.55021209655006      0.33550243800184      1.40164237927070
  H   -1.37701372885158      0.04801690945548      1.37156776696030
  C   -0.78842355513578     -1.29725455404637     -0.87642752450125
  H   -0.20489896461931     -2.18734066472927     -0.64534564952601
  H   -1.80068343402965     -1.40131650510078     -0.45575006449515
  H   -0.85593376660203     -1.17727430570068     -1.95725302587831
  N   -0.85455565118371      1.09521517202590     -0.84640792210916
  H   -0.35997820700580      1.92916087624179     -0.55017315544572
  H   -1.76443831521722      1.10963971364597     -0.35180722663013
  C   0.43385535919032      1.22594186693221      1.79080247335188
  H   -0.25066504239136      2.06448842794754      1.62138919583674
  H   0.51754979075529      1.10883677089259      2.87625638416592
  H   1.42302146705537      1.48912669665433      1.39488895176366
  C   0.43803034319898     -1.30705195579690      1.81622297035271
  H   -0.17601443495173     -2.18115868916596      1.58138921715816
  H   0.43651076080306     -1.20145923176302      2.90668120430732
  H   1.46788196982545     -1.51629791744398      1.49565042311505
