18
Coordinates from ORCA-job run
  C   -0.42271353913785      0.06552663737442     -0.40961415037902
  C   0.06271098171195      0.04847760847684      0.99147821128612
  Br  3.00964004987002      0.06080329298286     -0.03532948122868
  Cl  -2.63700256748583      0.21543498613907      2.15627397675833
  H   -1.30936460083370      0.05269162316132      1.41248817326457
  C   -0.70513025401978     -1.20685998124507     -1.01520472853867
  N   -0.94062562904834     -2.24844972990958     -1.51149873806267
  N   0.35308401494698      1.34350926668376      1.56411565180815
  H   1.33203327167333      1.41172606872169      1.82423044654138
  H   -0.21990886974677      1.50204126545252      2.38684478162944
  C   0.34077376936881     -1.23057817930307      1.77684645585309
  H   1.41134442519663     -1.37258902394438      1.96542705611989
  H   -0.17703540801959     -1.19884747834925      2.74149214846432
  H   -0.02617448590870     -2.10848611411139      1.23826509249293
  C   -0.63609451598821      1.17863654641897     -1.15073116780907
  H   -0.42723652905075      2.14710967104512     -0.71491118801917
  H   1.41213373832031     -0.02683980105760      0.34208458521760
  H   -1.00579385184854      1.10540334146379     -2.16622712539854
