13
Coordinates from ORCA-job run
  C   -0.21426307213751      0.02588137910392     -0.29890077303113
  C   0.41332467250740     -0.60927717290454      0.97402479580371
  Cl  0.63142902285026      1.71510006649717     -0.52489423785313
  Cl  -2.90726970477596      2.23234226744824      1.48970467404131
  H   1.25519193671749     -0.00684267492187      1.31477729047763
  H   0.80707823694451     -1.59519313138000      0.70746926030075
  C   0.25964365162221     -0.71499228756739     -1.47774712395945
  N   0.62979040956878     -1.34162689874985     -2.40017209068846
  N   -1.59810556860754      0.05759943346784     -0.26598810416876
  H   -2.00380720204425      0.67343683581439      0.47566851175871
  H   -1.99002384499695      0.35818747810073     -1.15023478387204
  C   -0.51356887825131     -0.81447190038489      2.08351634749999
  N   -1.16171965939712     -1.08667339452377      3.02290623369083
