14
Coordinates from ORCA-job run
  C   0.52845820491568     -0.01974077272665      0.10728789075911
  H   1.65068822114886      1.57534679238787      1.06135260888154
  F   -1.13544120150913      0.04564094505281      0.20368549624660
  H   2.35581788383573     -0.01322067661720     -0.30304079138074
  C   0.85428900794018      1.44126623426863      0.33702753403597
  H   0.50260016865508     -0.36404400407756     -0.90951269435171
  H   1.07879752936618      1.95373727778085     -0.59345447942136
  C   0.78982963137368     -1.00332531593915      1.23126452555133
  H   1.08085484014233     -1.97166400962827      0.82092590019623
  H   1.60064703314540     -0.66576220829472      1.87544004160603
  H   -0.12173629627744     -1.11979149749801      1.82219956467772
  N   -0.32085159390599      2.20081553923612      0.93993321981634
  O   -0.96460840315430      2.95936827349744      0.21634174270903
  O   -0.52199502567625      2.05282342255786      2.14424944067388
