10
Coordinates from ORCA-job run
  C   -0.16621503401576      0.67646621009830     -0.29476623124775
  C   -0.11040722831141      0.28557837384387      1.16238471849391
  Cl  -0.50626491076545     -0.73312189656856     -1.35712589718994
  H   -2.55785747718870      0.64967506806982      1.51623113903161
  H   0.21362016709842      1.15636574765423      1.74508503889508
  H   -1.02020050500994      1.35480880881283     -0.40227529166314
  H   -1.31824497325858      0.24535049201805      1.45876168766846
  C   0.71298580913114     -0.84802165124743      1.48150930798555
  N   1.35077535964014     -1.78869538883062      1.79907630284242
  H   0.74553879268013      1.13118423614957     -0.68606077481615
