16
Coordinates from ORCA-job run
  C   -0.29362300257869      0.00959970579631     -0.32493733172557
  C   -0.13968381670031      0.01368378162058      1.08303378469741
  Cl  1.70538339366134     -0.16538493987523     -1.34657000695328
  Cl  -2.66707566229122     -0.00115363124369      2.51145706496494
  H   -1.38553030207887      0.07621851497648      1.47529425161049
  C   -0.71509812890427      1.23983445112737     -0.94470927391433
  N   -1.08093041121710      2.25856182105399     -1.40955446632480
  C   0.44417739985816      1.25795009994303      1.71068059879615
  H   -0.06542251223109      2.16138439486505      1.37130267342208
  H   0.33715309370515      1.18874230829379      2.79480942199826
  H   1.50644582505571      1.30770061574879      1.45243325279150
  N   0.37034052855337     -1.19191420870887      1.66914283494378
  H   0.36251896299834     -1.96205245790944      1.01099115138820
  H   -0.20700908815232     -1.44166230512022      2.46619374460968
  C   -0.87220798854049     -1.17749066725522     -0.90789678901047
  N   -1.36911829113773     -2.16117748331275     -1.32465091129405
