14
Coordinates from ORCA-job run
  C   -0.26602961796582     -0.08746651799827     -0.29031213317312
  C   0.03517311197101     -0.10456514464541      1.03912942449684
  F   1.62111862410830      0.94910608865721     -1.02105159823439
  Cl  -2.75875657939395      0.33908964222343      2.02372119632846
  H   -1.43161725407350      0.06115625028026      1.35226152753226
  H   -0.40937995113874      0.87518570666099     -0.75813446927839
  C   -0.51117987527160     -1.29948572608892     -1.11409881570406
  H   0.29156527574163     -1.30330954737841     -1.85711218829798
  H   -0.46063920368843     -2.21789241592245     -0.52341078349170
  H   -1.46885067442023     -1.25805202354980     -1.64271212449074
  N   0.71595030513356      1.03374199348476      1.58206608363956
  H   0.06881125263666      1.72514609330150      1.94297708024936
  H   1.21408488778436      1.38839696050059      0.75070505049463
  H   0.20905969857675     -1.06640135952547      1.52954174992926
