16
Coordinates from ORCA-job run
  C   0.12367100843459      0.24049221479304     -0.38514674297756
  C   0.08491147403154      0.09595936109458      1.14762726731003
  F   1.28708056805468      0.95939949524112     -0.74581945987793
  Br  -3.54480465186605     -0.01619533601992      1.68936841652880
  H   -0.84121042254202      0.55083002247293      1.50639876146892
  H   0.93373564287645      0.68019816680964      1.51625271610400
  C   0.26086229979535     -1.05927819956947     -1.07543397813063
  N   0.39081976921910     -2.08162968379497     -1.63803148718175
  C   -1.07332357700721      0.99414435403523     -0.92336653335094
  H   -1.99518631195602      0.49889222583793     -0.60944653235475
  H   -1.07259240787670      1.99094161791759     -0.47679057908972
  H   -1.01737566170476      1.07976383807308     -2.01110394961066
  C   0.13461691490694     -1.32986183507636      1.68469256597883
  H   1.03171371900072     -1.86666205305035      1.36342259063859
  H   0.11591484972472     -1.30217834434147      2.77657665408034
  H   -0.75191321309131     -1.87959584442258      1.36619029046441
