19
Coordinates from ORCA-job run
  C   -0.19609985741296     -0.08146503466432     -0.34570902845873
  C   -0.12520670642843     -0.03144189652849      1.19664159860917
  F   1.11147573884222     -0.29544652231578     -0.82617303943200
  H   -3.06875809112578     -0.63382087259126      0.89828558711807
  H   -1.18056738336739      0.03407672995615      1.50339391628180
  N   -1.02296417929166     -1.16212573279273     -0.78336967624633
  H   -1.93362739307702     -1.05931031544746     -0.25825747149776
  H   -0.61543940314572     -2.03534454962187     -0.46197654345388
  C   -0.71639663259792      1.20884144521292     -0.93406953646076
  H   -0.79549582859118      1.06867157182387     -2.01259549604663
  H   -1.70847573405084      1.40372467284891     -0.51933080956228
  H   -0.05072139124014      2.04684111354171     -0.72068174561184
  N   0.52965490348430      1.24132573121011      1.63234944664448
  O   1.76205630461656      1.29820883130262      1.66567577878758
  O   -0.20770280006351      2.19610304986468      1.88914979365435
  C   0.57986889351077     -1.23284718354054      1.81566976784585
  H   1.53029791756127     -0.93318790731377      2.25522985830598
  H   -0.05498894558219     -1.68492426004977      2.58033098096183
  H   0.80457058795960     -1.99175887089498      1.06651661856111
