12
Coordinates from ORCA-job run
  C   -0.18983544728126      0.05312428400601     -0.29204492842717
  C   -0.08718141337787      0.05479358207761      1.15168468719441
  Br  1.64622985252078     -0.00523174737752     -1.38760477221138
  F   -2.60005976378303     -0.32578498716639      1.33872427704767
  H   -1.36303449871570     -0.02286041239074      1.35110294445954
  H   -0.67755623587704     -0.83574501665844     -0.68611461322182
  H   -0.63197147299669      0.95445940102666     -0.70986461234336
  H   0.34166805518431      0.98232593556802      1.54422203191040
  C   0.50883395506410     -1.19318456573805      1.76878403027807
  H   1.54234721438025     -1.38379675522945      1.44821345944645
  H   0.49613727320166     -1.12982778369858      2.86191037134120
  H   -0.10139751831953     -2.05987193441910      1.49351712452597
