12
Coordinates from ORCA-job run
  C   -0.32600313239221      0.04843356848390     -0.28908876570373
  C   -0.32557431839939      0.49314257046678      1.17406966611945
  Br  1.63425233818420     -0.96659576670748     -0.60128264993890
  Br  -2.75129508943915     -2.41012291763732      1.84578745887142
  H   -1.25789078047588      0.16438184159735      1.63510525942475
  H   -0.23774195075264      1.57921426253317      1.23837432745572
  H   0.49796487950829      0.03971766827456      1.71856003028923
  N   -1.38483537649927     -0.72906506034456     -0.61811383604357
  H   -1.77185212602662     -1.35977096633477      0.10515611596718
  H   -1.43391774462390     -1.06827023520221     -1.56658298706861
  C   -0.10155268817590      1.12853074039809     -1.24784089874243
  N   0.00905598909246      2.02605429447250     -1.99989372063053
