19
Coordinates from ORCA-job run
  C   -0.24497384520763     -0.01657222734820     -0.34111208883236
  C   -0.18149554327914     -0.14233339419064      1.10320888758367
  Cl  1.63781414505986      0.14502764017885     -1.13266345583076
  H   -2.48687237188384      0.22329424890821      1.89865923035121
  H   -1.40977524263026     -0.07180126630750      1.42795571243112
  C   -0.80792368929532     -1.23387198187444     -1.03017554598502
  H   -0.24649647929935     -2.12151789498685     -0.75020742814516
  H   -1.84191946219771     -1.35645683462646     -0.67947541079462
  H   -0.80606584881978     -1.10867677119113     -2.11585618577215
  C   -0.91656147116098      1.25886699552786     -0.78248487184339
  H   -1.02006352718881      1.29702837090508     -1.86919004862847
  H   -1.90973489686113      1.27311734805294     -0.30715711973323
  H   -0.37183420671315      2.14320321313494     -0.45383584702308
  N   0.29255723420933     -1.43176337088772      1.56837817281404
  H   -0.12113460925711     -1.56722605780469      2.48753502021909
  H   1.29608294983350     -1.35383268749426      1.71858428984092
  N   0.36272346395796      0.98826728815185      1.83277961276508
  H   -0.41181824752423      1.58819220995970      2.11414364344344
  H   1.00362164825778      1.51842517189246      1.25179343313967
