13
Coordinates from ORCA-job run
  C   0.69023147394968     -0.03599945971554     -0.00903966550303
  H   1.60024601357248      1.84530278323186      0.30555836775205
  F   -1.00848551077546     -0.25638980346501      0.53076545539718
  F   2.39331364482717     -0.03055843478888     -0.57869772236501
  C   0.60939282561575      1.47597402852881      0.04104541467959
  H   1.00867812663215     -0.58710005368309      0.85785590485550
  H   -0.10321227721028      1.73895105659702      0.82254138733703
  C   0.34735509933339     -0.78058564348669     -1.20705910682256
  N   0.06879678254002     -1.36892933242356     -2.18477863063188
  C   0.17352204634915      2.07523710536031     -1.28751459667350
  H   0.88299671711110      1.79426778928025     -2.06799506741776
  H   -0.81542536150409      1.70071401453997     -1.55897312742320
  H   0.12918041955892      3.16813595002453     -1.23150861318440
