11
Coordinates from ORCA-job run
  C   0.76160811308599     -0.00404670066177     -0.01094688869716
  H   1.27105505909276      1.92070491736014      0.75092132134491
  F   -1.20936395024646     -0.24065880394834      0.18764758993824
  Cl  2.83332760870074     -0.13477884593788     -0.30717700277313
  C   0.60267738966152      1.48487027485418      0.01091767853637
  H   0.50631140731443     -0.62686105045330     -0.84281505328249
  H   -0.43421187361062      1.70129783402699      0.24383091138670
  H   0.86917113981031      1.87756417430209     -0.97190259230896
  N   0.71910139363738     -0.72582429126908      1.27816406731287
  O   0.73555490124818     -0.05240897894139      2.30499089983131
  O   0.71815881130573     -1.94923852933162      1.23433906871133
