16
Coordinates from ORCA-job run
  C   -0.15819158836234      0.10675168619519     -0.37333428504490
  C   0.11962693338623      0.09983229888543      0.96981713377785
  F   1.85938095474282     -0.52854518798505     -1.01496551868224
  Cl  -2.59933391226803     -0.74538971926838      1.87234748422395
  H   -1.32703330394084     -0.21903624958555      1.22796660695132
  H   -0.31668219437336      1.07781900984212     -0.84884144757111
  C   -0.65231238224151     -1.07305233597348     -1.13575294707585
  H   -0.15313648068010     -1.08221049859896     -2.10148632072762
  H   -0.40519177310645     -1.99720054093630     -0.61705433216809
  H   -1.74226610087308     -1.02186790517100     -1.26440162560148
  N   0.34160634235031      1.29853992592794      1.72498497028845
  H   0.07587560743546      2.11095663421444      1.17915075112977
  H   1.33578936389091      1.33884947586331      1.92302701504984
  N   0.83493502696923     -1.01430659983868      1.49233268132326
  H   0.23650042153127     -1.72732356115495      1.88772536221989
  H   1.37577308553950     -1.33316643241606      0.68045447190697
