15
Coordinates from ORCA-job run
  C   -0.27321151343058      0.03233336470022     -0.29027801477328
  C   -0.03265561381093      0.06174528817028      1.08265912011614
  Br  1.89436490161888     -0.38287940723798     -1.44004824067614
  Cl  -2.91076458382039     -0.03096473840469      2.10005666500658
  H   -1.62833442310768      0.14310129381281      1.53171163207298
  H   -0.41669872091531      0.99931985601890     -0.76755236915608
  C   0.48725353269826      1.27872942119256      1.64111845902933
  N   0.87386576017750      2.28824150423640      2.10856596346451
  N   0.33956105542010     -1.12598036663835      1.81010321412660
  H   1.09136176510314     -1.57612987406971      1.29052341340278
  H   -0.44150207214777     -1.76847037169194      1.86659719168063
  C   -1.00719515048475     -1.12262156480313     -0.90883837950668
  H   -0.56328348077519     -2.07235937651221     -0.61241852322048
  H   -2.05343378488287     -1.10418392092643     -0.57597833158559
  H   -0.97379767164238     -1.06058110784676     -1.99501179998127
