16
Coordinates from ORCA-job run
  C   -0.08292218776035      0.01037017927088     -0.33062221903955
  C   -0.16258541288792     -0.10301248234443      1.12450938507267
  F   1.22723331677536      0.02677677565925     -0.88490019925818
  H   -2.47140184648716      0.66197753448685      1.41819603232724
  H   -1.54046190908577      0.13858289299083      1.33065776771376
  H   0.21536944486487     -1.06203202481985      1.48412449467207
  N   -0.69787008253838     -1.26753325978293     -0.91185374533261
  O   -1.84602112618482     -1.21381609140891     -1.34387803980980
  O   -0.01354150651734     -2.28856635790787     -0.84852691098783
  C   0.37488241734397      1.10738012422198      1.85726704190525
  H   -0.39503469570364      1.89661891431415      1.88517370818846
  H   0.59156987118091      0.84734929659626      2.89854600301449
  H   1.29274043336567      1.53397873971096      1.42943922724523
  N   -0.75808466803176      1.12693282821450     -0.91877565710850
  H   -0.18415880783372      1.93833415887904     -0.72106773819881
  H   -1.63261324049991      1.24049877191931     -0.39942915040388
