16
Coordinates from ORCA-job run
  C   0.54455138897474      0.00009984382721      0.03346110840821
  H   1.58941514304407      1.84582682918796     -0.25256946956136
  Cl  -1.43826805903699     -0.34179023744390      0.38226552894687
  H   2.36909291967987     -0.06663047580552      0.22887044106618
  C   0.55817390898577      1.53459829822183     -0.07888660368087
  H   -0.00983404359573      1.75472646372943     -0.98889370473268
  C   0.71177073132146     -0.77339284980671     -1.25785082791143
  H   -0.12174632388184     -0.53551059054624     -1.92133483226221
  H   1.65139036161545     -0.52809451077972     -1.75324203663539
  H   0.69140363912071     -1.83531505301014     -1.01906805661392
  N   1.17646238513096     -0.60569752286099      1.21057808235211
  O   1.20112377345134      0.09375023085069      2.26190822317816
  O   1.21930082914808     -1.85440335184421      1.25572534435175
  N   0.01363731469688      2.33552125316133      1.00771762358820
  H   0.46753923914940      1.97934558250484      1.84376068049590
  H   -0.95922320780416      2.06953609061414      1.10867849901046
