15
Coordinates from ORCA-job run
  C   -0.30685093539910      0.01058702601562     -0.26677090566659
  C   -0.16683508343656      0.04863180230154      1.16865798880221
  Br  1.65362412581422     -0.11568551671388     -1.28869896333082
  F   -2.59647673253298     -0.63035575723728      1.46440140380779
  H   -1.47249124408888     -0.16619806929270      1.43832922582380
  H   0.24931360907078     -0.90209733122528      1.52105702285333
  N   -1.02341978907739     -1.11105798992154     -0.83763248033253
  H   -1.84038943148236     -1.19487048711421     -0.22087867478008
  H   -0.44915223260027     -1.93411723458998     -0.68946646688822
  C   0.49121404894415      1.26201451014854      1.78380034504494
  H   -0.02990695318135      2.18138739063554      1.50188741373774
  H   0.47025637411605      1.19640041738787      2.87594598289687
  H   1.53853280792440      1.36277585487306      1.46732636874556
  C   -0.79450600758439      1.26966080342195     -0.83463070290113
  N   -1.21979255648632      2.28440458131075     -1.25078755781287
