12
Coordinates from ORCA-job run
  C   0.55538460819575      0.02251876671975      0.07987291770409
  H   1.58548515197234      1.86701302773167      0.30285729970371
  Cl  -1.74811340464546     -0.18655992588696      0.65684161590630
  Br  2.88682784341264     -0.40632689880181     -0.64741611577793
  C   0.58455808613518      1.52720898580535      0.03199359204724
  H   0.27619418222224     -0.55906743077509     -0.77767730551150
  H   0.77772477412559     -0.49982757618448      0.99293427963456
  H   -0.10946730637371      1.90498731377793      0.78444901914005
  C   0.20227266500880      2.05454967271938     -1.34285718681603
  H   0.90093082708624      1.68123937686530     -2.09503064234571
  H   -0.80782940888126      1.72711168784085     -1.59773884935405
  H   0.22533198174163      3.14840300018811     -1.36601862433073
