15
Coordinates from ORCA-job run
  C   -0.11453013040687     -0.05591450818939     -0.36576837931703
  C   -0.20028633146333     -0.03568535105791      1.14880815498907
  F   1.20655950103263     -0.19512886245796     -0.81829961958971
  H   -3.01487704501699      0.17970664657467      0.88874840086476
  H   -1.29983555712084     -0.00758825078994      1.37566657571822
  H   0.31892035981934     -0.89319214627419      1.58197888456262
  C   -0.74651476022095      1.17645355776860     -0.96815018621473
  H   -0.74203912336052      1.10592459945419     -2.05784355898442
  H   -1.77441286084141      1.21668277748562     -0.57702111081735
  H   -0.18010329214178      2.05940856297138     -0.66357504617406
  N   0.44545502381539      1.18065585252810      1.71835313602038
  O   1.61831804895187      1.41002053798574      1.41138446663342
  O   -0.21997705771416      1.87690007201738      2.48298912216588
  C   -0.80292947841925     -1.28180666676080     -0.82719105589382
  N   -1.20781729691313     -2.30114682125551     -1.24657978396323
