15
Coordinates from ORCA-job run
  C   0.39364720688237     -0.00082249156360     -0.13228035103200
  H   1.66074822923323      1.64833580058812     -0.08746177604238
  Cl  -1.37774267710569     -0.39037053789734     -0.19301359717309
  H   2.15767684120864     -0.99432026171459      0.64013590576888
  C   0.57209993970464      1.50850715342263     -0.05091029678786
  H   0.79636724634042     -0.35330710819506     -1.08943319485456
  C   1.12212865218907     -0.70418565003747      1.07607390561949
  N   0.71870533764298     -0.83978526689325      2.23510493577692
  C   0.03879961534143      2.06580655771805      1.28639409351538
  H   -0.57811878231244      1.32750737734786      1.79820778868896
  H   0.86171113254819      2.29233328599342      1.96796647939958
  H   -0.53651968609149      2.98260952527588      1.11531152447819
  N   0.04117625463202      2.16071136765674     -1.26176950067367
  H   0.11195435755056      3.16657162658283     -1.13640282349271
  H   -0.95023366776392      1.94575862171578     -1.30591309319110
