11
Coordinates from ORCA-job run
  C   -0.25010393691264     -0.04666977737246     -0.25786550374861
  C   0.18485768857916     -0.15886196204280      1.18207203385393
  Br  1.44110070926427      0.31432788878526     -1.37495256457557
  Cl  -3.47394072736460     -0.02558716370820      0.93883385205159
  H   -0.73103356032652     -0.20829546679019      1.77754859610673
  H   -0.80799540830040      0.87007025916710     -0.43475542130370
  H   0.77736529279209      0.70234379647756      1.49073479192389
  H   0.77945250654497     -1.06497217877494      1.32488474278051
  N   -0.90362655182596     -1.20669256054239     -0.73275822240312
  H   -1.74346566967575     -0.93438387599131     -1.22599923009007
  H   -1.22877034277459     -1.74329895920763      0.06117692540440
