16
Coordinates from ORCA-job run
  C   -0.27057902696283      0.02325505616786     -0.29636167727312
  C   -0.24110340669844      0.09080456704457      1.12938523816129
  Cl  1.64798630651233     -0.04887475355026     -1.09356271674073
  F   -2.66887215968948     -0.62237325405279      1.42451258020505
  H   -1.63972747145647     -0.15014085038744      1.32844439766637
  N   -0.90411692593938     -1.11358632671218     -0.93523707921215
  H   -1.73261231868986     -1.28929017887862     -0.36710588561247
  H   -0.29137305626039     -1.91444995337377     -0.84201832120737
  N   0.24476932960071      1.38366940929794      1.59057141101756
  H   1.26399372711623      1.39201561470161      1.53363915518781
  H   -0.00204077803266      1.50200870883706      2.56672930579508
  C   0.33776631069417     -1.11044474553811      1.85099405958350
  H   1.42621306958843     -1.18077472843111      1.69972573155498
  H   0.14187258506755     -1.03035851770873      2.92612720702459
  H   -0.12235352619909     -2.04287448141911      1.51421848678065
  H   -0.55831265865083      0.97231443400308     -0.74548189293105
