14
Coordinates from ORCA-job run
  C   0.45909895061096     -0.10128157131784     -0.05496795198520
  H   1.71305240972855      1.55127624265818     -0.02520036208852
  Br  -1.89309531555400     -0.11284768702789      0.01100576608361
  F   2.40553020047427     -0.22951047976867      0.21616191383120
  C   0.62759488739825      1.40753687500374     -0.04740894058489
  H   0.46645223530546     -0.60659574684132      0.89325688471891
  N   0.61928939534623     -0.72540324918232     -1.32572507803469
  H   -0.06004426481020     -1.46501442797787     -1.42987514265295
  H   1.56560034735323     -1.08767248624783     -1.28806489366118
  N   0.13381795523243      2.03222212880305      1.23041656170389
  O   -0.35942090391588      3.15456670107522      1.16910359247181
  O   0.34041259410439      1.40051925624961      2.25908009842017
  C   0.05602231217248      2.08565507124726     -1.20323271758018
  N   -0.30132080344618      2.67186937332666     -2.15543973064200
