14
Coordinates from ORCA-job run
  C   -0.39686228217302      0.03196410172102     -0.18522717487136
  C   -0.26527114441734      0.39025932580255      1.27694061776416
  Cl  1.13822835660079     -0.51860089218724     -0.91240888653445
  Cl  -2.54561823940552     -2.10685937544980      1.17470382020245
  H   -1.26306481843256      0.71337040218126      1.58951737069138
  H   -1.13018277862711     -0.77003345913520     -0.28591042932409
  H   -0.13214418023203     -0.57274445379569      1.77484998042909
  N   -0.88080082263783      1.17867105061688     -1.03249089519402
  O   -0.31725582943247      2.26663769520766     -0.91637574633900
  O   -1.81485034335630      0.94789870338841     -1.79633658586913
  C   0.81112422197187      1.38657701400053      1.68991688923396
  H   0.59855180841155      2.39164505448825      1.32940041840423
  H   0.86952945151799      1.41498649498361      2.78148943546115
  H   1.79170660021198      1.09180833817774      1.31087118594563
