15
Coordinates from ORCA-job run
  C   0.34353094666782     -0.12203706540847     -0.02955978593864
  H   1.63315872860500      1.51144273346872     -0.47109713506736
  Cl  -1.55885397755657     -0.28811661811838     -0.54897135847227
  H   2.30350045068924     -0.13587067899783      0.21648523255499
  C   0.60129650916364      1.40202077906579     -0.13062947173530
  N   1.02027252468259     -0.83699019724282     -1.14304359070132
  O   1.22029744691739     -0.17936789969246     -2.17513759976702
  O   1.04537535396039     -2.07055849669728     -1.07125129570603
  N   0.28548424981609     -0.73813448187224      1.24722720622216
  H   1.22994521442052     -0.98706276376364      1.50748770761917
  H   -0.29708678855592     -1.56370432645878      1.18095859371796
  C   0.50574720212686      2.02068984645865      1.19329731500513
  N   0.45677954840590      2.58703091648358      2.22064188860268
  C   -0.24517518944416      2.15339576845136     -1.07462803593228
  N   -0.79612221989879      2.87613248432382     -1.81941967040189
