17
Coordinates from ORCA-job run
  C   -0.13530809699557     -0.04219620815219     -0.32467718637893
  C   -0.22831873456524      0.01783987962964      1.19113165633249
  F   1.18387699368077     -0.27223548311758     -0.75892255597947
  H   -2.94586026625276     -0.05019703803929      1.07446033314338
  H   -1.34319192053888      0.09828368008317      1.38376739067564
  C   -0.69375861338772      1.20083167782477     -0.97578237032027
  H   -0.68116483324635      1.09586780821362     -2.06250459400534
  H   -1.72329389511909      1.31097318255503     -0.61615889270740
  H   -0.08988989130123      2.06442617143194     -0.69261392431596
  N   0.43555790868429      1.26495573985474      1.70190867956869
  O   1.58043036302093      1.51781389327890      1.31542570618722
  O   -0.19068587886359      1.94738485433142      2.51051509999398
  N   0.32900939099017     -1.09903986787368      1.89014927765500
  H   1.05460209236300     -1.55369748676479      1.35127053665372
  H   -0.41747620621800     -1.75277326417249      2.09367528033923
  C   -0.87569848232805     -1.24419546991420     -0.77122937293082
  N   -1.29390992992271     -2.24152206916900     -1.23000506391114
