11
Coordinates from ORCA-job run
  C   -0.29203940385428     -0.02793318639843     -0.38142683344662
  C   -0.20952760432945      0.03779095424985      1.13444705305657
  F   0.67111139077840      0.76169312183538     -1.01541537306237
  F   -2.63276299647042      1.09074075177094      1.29123717858143
  H   -1.69320792387244      0.77573274027782      1.38712570030803
  H   -0.31675385446431     -0.94920794674359      1.58828148580935
  C   -0.12046838335991     -1.41097692824796     -0.88726382373088
  N   -0.00372297456767     -2.51640311284273     -1.26660301676377
  C   0.93009143623581      0.71791368775677      1.63818447863275
  N   1.83753183519908      1.31397005472403      2.10696945256497
  H   -1.25590152129482      0.34001986361790     -0.75207630194944
