17
Coordinates from ORCA-job run
  C   0.05002363512681     -0.06416937784022     -0.48633781377305
  C   -0.11726568585819      0.05363957476748      1.03805722603144
  Br  1.87139608164396     -0.54498047121357     -1.08502035167994
  F   -2.39754695908629     -1.34778868660567      1.45736963832148
  H   -1.17344576962211      0.30481993555848      1.18985326776198
  C   -0.89973913436771     -1.16355142422536     -0.96578337789042
  H   -0.46071411790440     -2.12182238466558     -0.68877895642117
  H   -1.84071126377015     -1.09764770095382     -0.40440146381171
  H   -1.02218174150131     -1.11127041577569     -2.04927168532404
  C   -0.26272456394550      1.22124882254109     -1.10830842933425
  N   -0.54705685976359      2.25264140834777     -1.59648976151187
  N   0.16753613653095     -1.19629808893373      1.69704572873233
  H   -0.82229625075355     -1.54893884730397      1.79563462944965
  H   0.53379555833528     -1.01045401061059      2.62430103747704
  N   0.65869310722449      1.19272029225685      1.63240770283825
  O   1.83874640513737      1.35034086252337      1.32425629562603
  O   0.05499142257394      1.88226051213312      2.45812631350824
