13
Coordinates from ORCA-job run
  C   -0.19993010158977      0.00748987285377     -0.32843516491417
  C   0.08648043786462      0.17638948489300      0.96632447931615
  Cl  1.84356445745485     -0.17665826905933     -2.06421685909128
  F   -2.70050580475487      0.13225052566199      2.76309052331791
  H   -1.98934343154779     -0.43392197633381      2.57301204358837
  H   -0.37484312133991     -0.93009605924833     -0.82696053354013
  H   0.20725338927913      1.13001944608411      1.45957716282799
  N   -0.70005502666656      1.16850535723510     -1.05413879422595
  O   -0.37101202455214      2.28631871229830     -0.66766224841941
  O   -1.48359824528904      0.92861639942847     -1.96999081764818
  N   0.40664664388025     -0.98753548622897      1.78158117464077
  O   1.55717878077173     -1.40516006037980      1.79801582202715
  O   -0.51849595351051     -1.47242794720448      2.45161321212076
