16
Coordinates from ORCA-job run
  C   0.05542173421317     -0.05079268095384     -0.21057528972979
  C   -0.20649744218928      0.07047162650935      1.30874418881706
  F   1.02641451957966     -1.07343420474904     -0.46660200417500
  Br  -3.03214596400759     -2.65985512421054      0.71696323406489
  H   -1.28827842865105      0.01183376707388      1.44894347952486
  H   0.56673460797827      0.84896072702657     -0.57648547253313
  N   -1.14333167514810     -0.24982107924937     -0.91678342304975
  H   -1.70896201206329     -0.99679569675012     -0.50406592114352
  H   -0.96533979329414     -0.45819380690787     -1.89078812769858
  N   0.22868204266434      1.36176212953766      1.86291123859756
  H   -0.23985435666260      2.10627355633596      1.35671420445676
  H   1.22356099235459      1.46865883684515      1.68767726383177
  C   0.42062617926408     -1.06273626637447      2.10167875543780
  H   0.02369043028764     -2.01878056150006      1.76178264206956
  H   1.50873616050736     -1.06797793462324      1.98929480256762
  H   0.17022300516698     -0.92843328801001      3.15576042896186
