18
Coordinates from ORCA-job run
  C   -0.08611062242219      0.09553166446158     -0.42318421285496
  C   -0.26392662681800      0.03386258740140      1.09647394361230
  F   1.29730185040918      0.06541881076424     -0.71598613648862
  H   -2.56426565240072     -1.23471039155693      1.96206484342825
  H   -1.35767754163283      0.16343220984529      1.29422741300023
  C   -0.70178571220633     -1.13033170360402     -1.05606927457987
  H   -0.17944427105718     -2.01136146960659     -0.68643709317473
  H   -1.75048192750882     -1.21034951281979     -0.75648042342198
  H   -0.61686325106220     -1.06851402228075     -2.14566021314375
  C   -0.64585093309179      1.40727624787294     -0.98661667162652
  H   -1.42668779772410      1.22205535877955     -1.72772374202695
  H   -1.06944472496888      2.03888232806229     -0.20263915469847
  H   0.16430772395028      1.96017348905099     -1.46531215725720
  N   0.07319646413674     -1.27152631991590      1.65097332095468
  H   -0.87187521672850     -1.61302834314080      1.95170827842423
  H   0.64272440696306     -1.15821743394727      2.48120501359064
  C   0.47037437074328      1.13322098405493      1.72218948791831
  N   1.06005946141899      2.01520551657883      2.22953677834439
