18
Coordinates from ORCA-job run
  C   0.90319866101087     -0.05897945176192      0.13520493742064
  H   1.74515684902816      1.86672210757340      0.35396555402491
  F   -2.41988527975195      0.16362691673733     -0.70730798104284
  H   2.74756634802069      0.06718825624051     -1.05270757856003
  C   0.77528776238823      1.45379679308533      0.07057807534634
  N   -0.06364188305228     -0.76821941382495     -0.36882749307015
  H   -1.51395631407364     -0.21004509589258     -0.67165603381298
  H   0.03653205683928     -1.75353689623957     -0.13533871261379
  N   1.70384438496810     -0.51183264746769      1.21251095764276
  H   2.64194623745655     -0.20248440249076      0.96916873278389
  H   1.72468600179986     -1.52644436372021      1.21385612156788
  N   -0.23027984909744      1.92185808425010      1.04746570812561
  H   -0.01942745261244      1.46619890594912      1.93132296578049
  H   -1.12778651434524      1.55333410645549      0.74530476962951
  C   0.41437194079369      1.94800083186146     -1.31528503874773
  H   1.16709045397549      1.57861141909330     -2.01227853253528
  H   -0.57002314918249      1.57915500717354     -1.60724938235257
  H   0.39053974583456      3.04175984297813     -1.31755706958667
