19
Coordinates from ORCA-job run
  C   -0.15613721174411     -0.05118403273854     -0.31152657344662
  C   -0.14105747864276      0.03430645992100      1.14700330997918
  Cl  1.61475701654192     -0.21103489928308     -1.13320532020952
  H   -2.47655057372227     -0.75662972381186      1.48259409671006
  H   -1.37458817983813     -0.16796643309959      1.36687327161657
  N   -0.92911745581311     -1.10448893725515     -0.86469405181276
  H   -1.74548002064419     -1.20713262260415     -0.23440132011295
  H   -0.38682846497249     -1.95659705200664     -0.82469550117695
  N   -0.70633005874527      1.26750894026820     -0.87412209923350
  O   0.03647530903834      2.24296841700118     -0.94175998695970
  O   -1.90658374724519      1.27426442044913     -1.13367416586338
  C   0.38026682552375      1.30485325616024      1.78308394891724
  H   -0.18571346131346      2.18792405518458      1.47923361585837
  H   0.29107999000564      1.21844910500227      2.87140509557368
  H   1.43454157656935      1.48621601217855      1.53799960661413
  C   0.42828803537771     -1.21653280092777      1.78796696341217
  H   1.48477045438164     -1.36823120307414      1.53793275655744
  H   0.32928508731010     -1.13819989482716      2.87547947209562
  H   -0.14586764206746     -2.09758306653710      1.48830688148088
